_cell_length_a                         12.668500
_cell_length_b                         12.668500
_cell_length_c                         8.537400
_cell_angle_alpha                      90.000000
_cell_angle_beta                       90.000000
_cell_angle_gamma                      120.000000
_space_group_IT_number                 1
 loop_
 _space_group_symop_operation_xyz 
 'x, y, z' 
 loop_ 
 _atom_site_label 
 _atom_site_occupancy 
 _atom_site_fract_x 
 _atom_site_fract_y
 _atom_site_fract_z
 _atom_site_adp_type
 _atom_site_U_iso_or_equiv
 _atom_site_type_symbol
 Mn1    1.0    0.161271    0.165359    0.753960 Biso 1.000000  Mn    
 Mn2    1.0    0.834088    0.498729    0.753960 Biso 1.000000  Mn    
 Mn3    1.0    0.494641    0.825912    0.753960 Biso 1.000000  Mn    
 Mn4    1.0    0.498729    0.494641    0.253960 Biso 1.000000  Mn    
 Mn5    1.0    0.825912    0.161271    0.253960 Biso 1.000000  Mn    
 Mn6    1.0    0.165359    0.834088    0.253960 Biso 1.000000  Mn    
 O1     1.0    0.093854    0.258394    0.901448 Biso 1.000000  O     
 O2     1.0    0.994540    0.566146    0.901448 Biso 1.000000  O     
 O3     1.0    0.401606    0.665460    0.901448 Biso 1.000000  O     
 O4     1.0    0.566146    0.401606    0.401448 Biso 1.000000  O     
 O5     1.0    0.665460    0.093854    0.401448 Biso 1.000000  O     
 O6     1.0    0.258394    0.994540    0.401448 Biso 1.000000  O     
 O7     1.0    0.989500    0.261866    0.109368 Biso 1.000000  O     
 O8     1.0    0.102366    0.670500    0.109368 Biso 1.000000  O     
 O9     1.0    0.398134    0.557634    0.109368 Biso 1.000000  O     
 O10    1.0    0.670500    0.398134    0.609368 Biso 1.000000  O     
 O11    1.0    0.557634    0.989500    0.609368 Biso 1.000000  O     
 O12    1.0    0.261866    0.102366    0.609368 Biso 1.000000  O     
 O13    1.0    0.321891    0.228544    0.903124 Biso 1.000000  O     
 O14    1.0    0.736653    0.338109    0.903124 Biso 1.000000  O     
 O15    1.0    0.431456    0.923347    0.903124 Biso 1.000000  O     
 O16    1.0    0.338109    0.431456    0.403124 Biso 1.000000  O     
 O17    1.0    0.923347    0.321891    0.403124 Biso 1.000000  O     
 O18    1.0    0.228544    0.736653    0.403124 Biso 1.000000  O     
 O19    1.0    0.431424    0.330741    0.110524 Biso 1.000000  O     
 O20    1.0    0.729317    0.228576    0.110524 Biso 1.000000  O     
 O21    1.0    0.329259    0.930683    0.110524 Biso 1.000000  O     
 O22    1.0    0.228576    0.329259    0.610524 Biso 1.000000  O     
 O23    1.0    0.930683    0.431424    0.610524 Biso 1.000000  O     
 O24    1.0    0.330741    0.729317    0.610524 Biso 1.000000  O     
 O25    1.0    0.061136    0.999837    0.893860 Biso 1.000000  O     
 O26    1.0    0.768701    0.598864    0.893860 Biso 1.000000  O     
 O27    1.0    0.660163    0.891299    0.893860 Biso 1.000000  O     
 O28    1.0    0.598864    0.660163    0.393860 Biso 1.000000  O     
 O29    1.0    0.891299    0.061136    0.393860 Biso 1.000000  O     
 O30    1.0    0.999837    0.768701    0.393860 Biso 1.000000  O     
 O31    1.0    0.071504    0.898971    0.101420 Biso 1.000000  O     
 O32    1.0    0.657467    0.588496    0.101420 Biso 1.000000  O     
 O33    1.0    0.761029    0.002533    0.101420 Biso 1.000000  O     
 O34    1.0    0.588496    0.761029    0.601420 Biso 1.000000  O     
 O35    1.0    0.002533    0.071504    0.601420 Biso 1.000000  O     
 O36    1.0    0.898971    0.657467    0.601420 Biso 1.000000  O     
 C1     1.0    0.021323    0.209630    0.013560 Biso 1.000000  C     
 C2     1.0    0.018307    0.638677    0.013560 Biso 1.000000  C     
 C3     1.0    0.450370    0.641693    0.013560 Biso 1.000000  C     
 C4     1.0    0.638677    0.450370    0.513560 Biso 1.000000  C     
 C5     1.0    0.641693    0.021323    0.513560 Biso 1.000000  C     
 C6     1.0    0.209630    0.018307    0.513560 Biso 1.000000  C     
 C7     1.0    0.346665    0.299775    0.016680 Biso 1.000000  C     
 C8     1.0    0.783110    0.313335    0.016680 Biso 1.000000  C     
 C9     1.0    0.360225    0.876890    0.016680 Biso 1.000000  C     
 C10    1.0    0.313335    0.360225    0.516680 Biso 1.000000  C     
 C11    1.0    0.876890    0.346665    0.516680 Biso 1.000000  C     
 C12    1.0    0.299775    0.783110    0.516680 Biso 1.000000  C     
 C13    1.0    0.116600    0.966212    0.985160 Biso 1.000000  C     
 C14    1.0    0.679612    0.543400    0.985160 Biso 1.000000  C     
 C15    1.0    0.693788    0.980388    0.985160 Biso 1.000000  C     
 C16    1.0    0.543400    0.693788    0.485160 Biso 1.000000  C     
 C17    1.0    0.980388    0.116600    0.485160 Biso 1.000000  C     
 C18    1.0    0.966212    0.679612    0.485160 Biso 1.000000  C     
 H1     1.0    0.987730    0.124900    0.026200 Biso 1.000000  H     
 H2     1.0    0.967170    0.672270    0.026200 Biso 1.000000  H     
 H3     1.0    0.535100    0.692830    0.026200 Biso 1.000000  H     
 H4     1.0    0.672270    0.535100    0.526200 Biso 1.000000  H     
 H5     1.0    0.692830    0.987730    0.526200 Biso 1.000000  H     
 H6     1.0    0.124900    0.967170    0.526200 Biso 1.000000  H     
 H7     1.0    0.295610    0.333110    0.032040 Biso 1.000000  H     
 H8     1.0    0.867500    0.364390    0.032040 Biso 1.000000  H     
 H9     1.0    0.326890    0.792500    0.032040 Biso 1.000000  H     
 H10    1.0    0.364390    0.326890    0.532040 Biso 1.000000  H     
 H11    1.0    0.792500    0.295610    0.532040 Biso 1.000000  H     
 H12    1.0    0.333110    0.867500    0.532040 Biso 1.000000  H     
 H13    1.0    0.198500    0.993970    0.963960 Biso 1.000000  H     
 H14    1.0    0.625470    0.461500    0.963960 Biso 1.000000  H     
 H15    1.0    0.666030    0.034530    0.963960 Biso 1.000000  H     
 H16    1.0    0.461500    0.666030    0.463960 Biso 1.000000  H     
 H17    1.0    0.034530    0.198500    0.463960 Biso 1.000000  H     
 H18    1.0    0.993970    0.625470    0.463960 Biso 1.000000  H     
 H19    1.0    0.134724    0.420983    0.823408 Biso 1.000000  H     
 H20    1.0    0.134180    0.530835    0.855001 Biso 1.000000  H     
 H21    1.0    0.243079    0.535204    0.804057 Biso 1.000000  H     
 H22    1.0    0.539931    0.237032    0.331570 Biso 1.000000  H     
 H23    1.0    0.540475    0.127180    0.299977 Biso 1.000000  H     
 H24    1.0    0.431577    0.122811    0.350921 Biso 1.000000  H     
 H25    1.0    0.142355    0.499509    0.688635 Biso 1.000000  H     
 H26    1.0    0.475689    0.166175    0.188635 Biso 1.000000  H     
 H27    1.0    0.462998    0.195070    0.863516 Biso 1.000000  H     
 H28    1.0    0.579822    0.207158    0.810875 Biso 1.000000  H     
 H29    1.0    0.470952    0.084848    0.828666 Biso 1.000000  H     
 H30    1.0    0.212850    0.462981    0.305188 Biso 1.000000  H     
 H31    1.0    0.096025    0.450893    0.357829 Biso 1.000000  H     
 H32    1.0    0.204896    0.573203    0.340038 Biso 1.000000  H     
 H33    1.0    0.474920    0.166008    0.689792 Biso 1.000000  H     
 H34    1.0    0.141586    0.499342    0.189792 Biso 1.000000  H     
 H35    1.0    0.893554    0.848122    0.143442 Biso 1.000000  H     
 H36    1.0    0.766115    0.757006    0.178727 Biso 1.000000  H     
 H37    1.0    0.808098    0.887745    0.195647 Biso 1.000000  H     
 H38    1.0    0.751624    0.813793    0.701769 Biso 1.000000  H     
 H39    1.0    0.879063    0.904909    0.666484 Biso 1.000000  H     
 H40    1.0    0.837080    0.774170    0.649564 Biso 1.000000  H     
 H41    1.0    0.850953    0.827293    0.311269 Biso 1.000000  H     
 H42    1.0    0.850953    0.827293    0.811269 Biso 1.000000  H     
 N1     1.0    0.163332    0.496667    0.791539 Biso 1.000000  N     
 N2     1.0    0.496666    0.163333    0.291539 Biso 1.000000  N     
 N3     1.0    0.496666    0.163333    0.795739 Biso 1.000000  N     
 N4     1.0    0.163332    0.496667    0.295739 Biso 1.000000  N     
 N5     1.0    0.830001    0.830000    0.208841 Biso 1.000000  N     
 N6     1.0    0.830001    0.830000    0.708841 Biso 1.000000  N     
