_cell_length_a                         12.668500
_cell_length_b                         12.668500
_cell_length_c                         8.537400
_cell_angle_alpha                      90.000000
_cell_angle_beta                       90.000000
_cell_angle_gamma                      120.000000
_space_group_IT_number                 1
 loop_
 _space_group_symop_operation_xyz 
 'x, y, z' 
 loop_ 
 _atom_site_label 
 _atom_site_occupancy 
 _atom_site_fract_x 
 _atom_site_fract_y
 _atom_site_fract_z
 _atom_site_adp_type
 _atom_site_U_iso_or_equiv
 _atom_site_type_symbol
 Mn1    1.0    0.160760    0.165870    0.753700 Biso 1.000000  Mn    
 Mn2    1.0    0.835110    0.499240    0.753700 Biso 1.000000  Mn    
 Mn3    1.0    0.494130    0.824890    0.753700 Biso 1.000000  Mn    
 Mn4    1.0    0.499240    0.494130    0.253700 Biso 1.000000  Mn    
 Mn5    1.0    0.824890    0.160760    0.253700 Biso 1.000000  Mn    
 Mn6    1.0    0.165870    0.835110    0.253700 Biso 1.000000  Mn    
 O1     1.0    0.092790    0.257960    0.901550 Biso 1.000000  O     
 O2     1.0    0.995170    0.567210    0.901550 Biso 1.000000  O     
 O3     1.0    0.402040    0.664830    0.901550 Biso 1.000000  O     
 O4     1.0    0.567210    0.402040    0.401550 Biso 1.000000  O     
 O5     1.0    0.664830    0.092790    0.401550 Biso 1.000000  O     
 O6     1.0    0.257960    0.995170    0.401550 Biso 1.000000  O     
 O7     1.0    0.988870    0.262300    0.109470 Biso 1.000000  O     
 O8     1.0    0.103430    0.671130    0.109470 Biso 1.000000  O     
 O9     1.0    0.397700    0.556570    0.109470 Biso 1.000000  O     
 O10    1.0    0.671130    0.397700    0.609470 Biso 1.000000  O     
 O11    1.0    0.556570    0.988870    0.609470 Biso 1.000000  O     
 O12    1.0    0.262300    0.103430    0.609470 Biso 1.000000  O     
 O13    1.0    0.320970    0.228540    0.903580 Biso 1.000000  O     
 O14    1.0    0.737570    0.339030    0.903580 Biso 1.000000  O     
 O15    1.0    0.431460    0.922430    0.903580 Biso 1.000000  O     
 O16    1.0    0.339030    0.431460    0.403580 Biso 1.000000  O     
 O17    1.0    0.922430    0.320970    0.403580 Biso 1.000000  O     
 O18    1.0    0.228540    0.737570    0.403580 Biso 1.000000  O     
 O19    1.0    0.431420    0.329820    0.110980 Biso 1.000000  O     
 O20    1.0    0.728400    0.228580    0.110980 Biso 1.000000  O     
 O21    1.0    0.330180    0.931600    0.110980 Biso 1.000000  O     
 O22    1.0    0.228580    0.330180    0.610980 Biso 1.000000  O     
 O23    1.0    0.931600    0.431420    0.610980 Biso 1.000000  O     
 O24    1.0    0.329820    0.728400    0.610980 Biso 1.000000  O     
 O25    1.0    0.059840    0.999500    0.892020 Biso 1.000000  O     
 O26    1.0    0.769660    0.600160    0.892020 Biso 1.000000  O     
 O27    1.0    0.660500    0.890340    0.892020 Biso 1.000000  O     
 O28    1.0    0.600160    0.660500    0.392020 Biso 1.000000  O     
 O29    1.0    0.890340    0.059840    0.392020 Biso 1.000000  O     
 O30    1.0    0.999500    0.769660    0.392020 Biso 1.000000  O     
 O31    1.0    0.072800    0.899930    0.099580 Biso 1.000000  O     
 O32    1.0    0.657130    0.587200    0.099580 Biso 1.000000  O     
 O33    1.0    0.760070    0.002870    0.099580 Biso 1.000000  O     
 O34    1.0    0.587200    0.760070    0.599580 Biso 1.000000  O     
 O35    1.0    0.002870    0.072800    0.599580 Biso 1.000000  O     
 O36    1.0    0.899930    0.657130    0.599580 Biso 1.000000  O     
 C1     1.0    0.021700    0.209630    0.015700 Biso 1.000000  C     
 C2     1.0    0.017930    0.638300    0.015700 Biso 1.000000  C     
 C3     1.0    0.450370    0.642070    0.015700 Biso 1.000000  C     
 C4     1.0    0.638300    0.450370    0.515700 Biso 1.000000  C     
 C5     1.0    0.642070    0.021700    0.515700 Biso 1.000000  C     
 C6     1.0    0.209630    0.017930    0.515700 Biso 1.000000  C     
 C7     1.0    0.344970    0.298080    0.019600 Biso 1.000000  C     
 C8     1.0    0.783110    0.315030    0.019600 Biso 1.000000  C     
 C9     1.0    0.361920    0.876890    0.019600 Biso 1.000000  C     
 C10    1.0    0.315030    0.361920    0.519600 Biso 1.000000  C     
 C11    1.0    0.876890    0.344970    0.519600 Biso 1.000000  C     
 C12    1.0    0.298080    0.783110    0.519600 Biso 1.000000  C     
 C13    1.0    0.116600    0.964440    0.980200 Biso 1.000000  C     
 C14    1.0    0.677840    0.543400    0.980200 Biso 1.000000  C     
 C15    1.0    0.695560    0.982160    0.980200 Biso 1.000000  C     
 C16    1.0    0.543400    0.695560    0.480200 Biso 1.000000  C     
 C17    1.0    0.982160    0.116600    0.480200 Biso 1.000000  C     
 C18    1.0    0.964440    0.677840    0.480200 Biso 1.000000  C     
 H1     1.0    0.990300    0.124900    0.031500 Biso 1.000000  H     
 H2     1.0    0.964600    0.669700    0.031500 Biso 1.000000  H     
 H3     1.0    0.535100    0.695400    0.031500 Biso 1.000000  H     
 H4     1.0    0.669700    0.535100    0.531500 Biso 1.000000  H     
 H5     1.0    0.695400    0.990300    0.531500 Biso 1.000000  H     
 H6     1.0    0.124900    0.964600    0.531500 Biso 1.000000  H     
 H7     1.0    0.291700    0.329200    0.038800 Biso 1.000000  H     
 H8     1.0    0.867500    0.368300    0.038800 Biso 1.000000  H     
 H9     1.0    0.330800    0.792500    0.038800 Biso 1.000000  H     
 H10    1.0    0.368300    0.330800    0.538800 Biso 1.000000  H     
 H11    1.0    0.792500    0.291700    0.538800 Biso 1.000000  H     
 H12    1.0    0.329200    0.867500    0.538800 Biso 1.000000  H     
 H13    1.0    0.198500    0.988900    0.953700 Biso 1.000000  H     
 H14    1.0    0.620400    0.461500    0.953700 Biso 1.000000  H     
 H15    1.0    0.671100    0.039600    0.953700 Biso 1.000000  H     
 H16    1.0    0.461500    0.671100    0.453700 Biso 1.000000  H     
 H17    1.0    0.039600    0.198500    0.453700 Biso 1.000000  H     
 H18    1.0    0.988900    0.620400    0.453700 Biso 1.000000  H     
 H19    1.0    0.135200    0.422600    0.839000 Biso 1.000000  H     
 H20    1.0    0.117400    0.524800    0.839000 Biso 1.000000  H     
 H21    1.0    0.237400    0.542600    0.839000 Biso 1.000000  H     
 H22    1.0    0.524800    0.237400    0.339000 Biso 1.000000  H     
 H23    1.0    0.542600    0.135200    0.339000 Biso 1.000000  H     
 H24    1.0    0.422600    0.117400    0.339000 Biso 1.000000  H     
 H25    1.0    0.163333    0.496667    0.693000 Biso 1.000000  H     
 H26    1.0    0.496667    0.163333    0.193000 Biso 1.000000  H     
 H27    1.0    0.446000    0.189200    0.846000 Biso 1.000000  H     
 H28    1.0    0.573200    0.214000    0.846000 Biso 1.000000  H     
 H29    1.0    0.470800    0.086800    0.846000 Biso 1.000000  H     
 H30    1.0    0.214000    0.470800    0.346000 Biso 1.000000  H     
 H31    1.0    0.086800    0.446000    0.346000 Biso 1.000000  H     
 H32    1.0    0.189200    0.573200    0.346000 Biso 1.000000  H     
 H33    1.0    0.496667    0.163333    0.694000 Biso 1.000000  H     
 H34    1.0    0.163333    0.496667    0.194000 Biso 1.000000  H     
 H35    1.0    0.905900    0.854600    0.159200 Biso 1.000000  H     
 H36    1.0    0.778700    0.754100    0.159200 Biso 1.000000  H     
 H37    1.0    0.805400    0.881300    0.159200 Biso 1.000000  H     
 H38    1.0    0.754100    0.805400    0.659200 Biso 1.000000  H     
 H39    1.0    0.881300    0.905900    0.659200 Biso 1.000000  H     
 H40    1.0    0.854600    0.778700    0.659200 Biso 1.000000  H     
 H41    1.0    0.830000    0.830000    0.305000 Biso 1.000000  H     
 H42    1.0    0.830000    0.830000    0.805000 Biso 1.000000  H     
 N1     1.0    0.163333    0.496667    0.801200 Biso 1.000000  N     
 N2     1.0    0.496667    0.163333    0.301200 Biso 1.000000  N     
 N3     1.0    0.496667    0.163333    0.805400 Biso 1.000000  N     
 N4     1.0    0.163333    0.496667    0.305400 Biso 1.000000  N     
 N5     1.0    0.830000    0.830000    0.197300 Biso 1.000000  N     
 N6     1.0    0.830000    0.830000    0.697300 Biso 1.000000  N     
