_cell_length_a                         12.668500
_cell_length_b                         12.668500
_cell_length_c                         8.537400
_cell_angle_alpha                      90.000000
_cell_angle_beta                       90.000000
_cell_angle_gamma                      120.000000
_space_group_IT_number                 1
 loop_
 _space_group_symop_operation_xyz 
 'x, y, z' 
 loop_ 
 _atom_site_label 
 _atom_site_occupancy 
 _atom_site_fract_x 
 _atom_site_fract_y
 _atom_site_fract_z
 _atom_site_adp_type
 _atom_site_U_iso_or_equiv
 _atom_site_type_symbol
 Mn1    1.0    0.163315    0.163315    0.755000 Biso 1.000000  Mn    
 Mn2    1.0    0.830000    0.496685    0.755000 Biso 1.000000  Mn    
 Mn3    1.0    0.496685    0.830000    0.755000 Biso 1.000000  Mn    
 Mn4    1.0    0.496685    0.496685    0.255000 Biso 1.000000  Mn    
 Mn5    1.0    0.830000    0.163315    0.255000 Biso 1.000000  Mn    
 Mn6    1.0    0.163315    0.830000    0.255000 Biso 1.000000  Mn    
 O1     1.0    0.098110    0.260130    0.901040 Biso 1.000000  O     
 O2     1.0    0.992020    0.561890    0.901040 Biso 1.000000  O     
 O3     1.0    0.399870    0.667980    0.901040 Biso 1.000000  O     
 O4     1.0    0.561890    0.399870    0.401040 Biso 1.000000  O     
 O5     1.0    0.667980    0.098110    0.401040 Biso 1.000000  O     
 O6     1.0    0.260130    0.992020    0.401040 Biso 1.000000  O     
 O7     1.0    0.992020    0.260130    0.108960 Biso 1.000000  O     
 O8     1.0    0.098110    0.667980    0.108960 Biso 1.000000  O     
 O9     1.0    0.399870    0.561890    0.108960 Biso 1.000000  O     
 O10    1.0    0.667980    0.399870    0.608960 Biso 1.000000  O     
 O11    1.0    0.561890    0.992020    0.608960 Biso 1.000000  O     
 O12    1.0    0.260130    0.098110    0.608960 Biso 1.000000  O     
 O13    1.0    0.325575    0.228560    0.901300 Biso 1.000000  O     
 O14    1.0    0.732985    0.334425    0.901300 Biso 1.000000  O     
 O15    1.0    0.431440    0.927015    0.901300 Biso 1.000000  O     
 O16    1.0    0.334425    0.431440    0.401300 Biso 1.000000  O     
 O17    1.0    0.927015    0.325575    0.401300 Biso 1.000000  O     
 O18    1.0    0.228560    0.732985    0.401300 Biso 1.000000  O     
 O19    1.0    0.431440    0.334425    0.108700 Biso 1.000000  O     
 O20    1.0    0.732985    0.228560    0.108700 Biso 1.000000  O     
 O21    1.0    0.325575    0.927015    0.108700 Biso 1.000000  O     
 O22    1.0    0.228560    0.325575    0.608700 Biso 1.000000  O     
 O23    1.0    0.927015    0.431440    0.608700 Biso 1.000000  O     
 O24    1.0    0.334425    0.732985    0.608700 Biso 1.000000  O     
 O25    1.0    0.066320    1.001185    0.901220 Biso 1.000000  O     
 O26    1.0    0.764865    0.593680    0.901220 Biso 1.000000  O     
 O27    1.0    0.658815    0.895135    0.901220 Biso 1.000000  O     
 O28    1.0    0.593680    0.658815    0.401220 Biso 1.000000  O     
 O29    1.0    0.895135    0.066320    0.401220 Biso 1.000000  O     
 O30    1.0    1.001185    0.764865    0.401220 Biso 1.000000  O     
 O31    1.0    0.066320    0.895135    0.108780 Biso 1.000000  O     
 O32    1.0    0.658815    0.593680    0.108780 Biso 1.000000  O     
 O33    1.0    0.764865    0.001185    0.108780 Biso 1.000000  O     
 O34    1.0    0.593680    0.764865    0.608780 Biso 1.000000  O     
 O35    1.0    0.001185    0.066320    0.608780 Biso 1.000000  O     
 O36    1.0    0.895135    0.658815    0.608780 Biso 1.000000  O     
 C1     1.0    0.019815    0.209630    0.005000 Biso 1.000000  C     
 C2     1.0    0.019815    0.640185    0.005000 Biso 1.000000  C     
 C3     1.0    0.450370    0.640185    0.005000 Biso 1.000000  C     
 C4     1.0    0.640185    0.450370    0.505000 Biso 1.000000  C     
 C5     1.0    0.640185    0.019815    0.505000 Biso 1.000000  C     
 C6     1.0    0.209630    0.019815    0.505000 Biso 1.000000  C     
 C7     1.0    0.353445    0.306555    0.005000 Biso 1.000000  C     
 C8     1.0    0.783110    0.306555    0.005000 Biso 1.000000  C     
 C9     1.0    0.353445    0.876890    0.005000 Biso 1.000000  C     
 C10    1.0    0.306555    0.353445    0.505000 Biso 1.000000  C     
 C11    1.0    0.876890    0.353445    0.505000 Biso 1.000000  C     
 C12    1.0    0.306555    0.783110    0.505000 Biso 1.000000  C     
 C13    1.0    0.116600    0.973300    1.005000 Biso 1.000000  C     
 C14    1.0    0.686700    0.543400    1.005000 Biso 1.000000  C     
 C15    1.0    0.686700    0.973300    1.005000 Biso 1.000000  C     
 C16    1.0    0.543400    0.686700    0.505000 Biso 1.000000  C     
 C17    1.0    0.973300    0.116600    0.505000 Biso 1.000000  C     
 C18    1.0    0.973300    0.686700    0.505000 Biso 1.000000  C     
 H1     1.0    0.977450    0.124900    0.005000 Biso 1.000000  H     
 H2     1.0    0.977450    0.682550    0.005000 Biso 1.000000  H     
 H3     1.0    0.535100    0.682550    0.005000 Biso 1.000000  H     
 H4     1.0    0.682550    0.535100    0.505000 Biso 1.000000  H     
 H5     1.0    0.682550    0.977450    0.505000 Biso 1.000000  H     
 H6     1.0    0.124900    0.977450    0.505000 Biso 1.000000  H     
 H7     1.0    0.311250    0.348750    0.005000 Biso 1.000000  H     
 H8     1.0    0.867500    0.348750    0.005000 Biso 1.000000  H     
 H9     1.0    0.311250    0.792500    0.005000 Biso 1.000000  H     
 H10    1.0    0.348750    0.311250    0.505000 Biso 1.000000  H     
 H11    1.0    0.792500    0.311250    0.505000 Biso 1.000000  H     
 H12    1.0    0.348750    0.867500    0.505000 Biso 1.000000  H     
 H13    1.0    0.198500    1.014250    1.005000 Biso 1.000000  H     
 H14    1.0    0.645750    0.461500    1.005000 Biso 1.000000  H     
 H15    1.0    0.645750    0.014250    1.005000 Biso 1.000000  H     
 H16    1.0    0.461500    0.645750    0.505000 Biso 1.000000  H     
 H17    1.0    0.014250    0.198500    0.505000 Biso 1.000000  H     
 H18    1.0    1.014250    0.645750    0.505000 Biso 1.000000  H     
 H19    1.0    0.112437    0.418111    0.739691 Biso 1.000000  H     
 H20    1.0    0.202123    0.505392    0.841930 Biso 1.000000  H     
 H21    1.0    0.217744    0.520593    0.677071 Biso 1.000000  H     
 H22    1.0    0.575767    0.211286    0.266105 Biso 1.000000  H     
 H23    1.0    0.486081    0.124006    0.163866 Biso 1.000000  H     
 H24    1.0    0.470461    0.108804    0.328725 Biso 1.000000  H     
 H25    1.0    0.122961    0.540472    0.752898 Biso 1.000000  H     
 H26    1.0    0.456295    0.207138    0.252898 Biso 1.000000  H     
 H27    1.0    0.535191    0.170887    0.851478 Biso 1.000000  H     
 H28    1.0    0.556371    0.192650    0.681128 Biso 1.000000  H     
 H29    1.0    0.447740    0.081026    0.738702 Biso 1.000000  H     
 H30    1.0    0.157675    0.458822    0.162726 Biso 1.000000  H     
 H31    1.0    0.136496    0.437058    0.333076 Biso 1.000000  H     
 H32    1.0    0.245127    0.548683    0.275501 Biso 1.000000  H     
 H33    1.0    0.451565    0.204900    0.757102 Biso 1.000000  H     
 H34    1.0    0.118231    0.538234    0.257102 Biso 1.000000  H     
 H35    1.0    0.836482    0.866126    0.160625 Biso 1.000000  H     
 H36    1.0    0.749447    0.779091    0.274810 Biso 1.000000  H     
 H37    1.0    0.859605    0.889249    0.329565 Biso 1.000000  H     
 H38    1.0    0.793874    0.823518    0.849375 Biso 1.000000  H     
 H39    1.0    0.880909    0.910553    0.735190 Biso 1.000000  H     
 H40    1.0    0.770751    0.800395    0.680435 Biso 1.000000  H     
 H41    1.0    0.871906    0.788094    0.255000 Biso 1.000000  H     
 H42    1.0    0.871906    0.788094    0.755000 Biso 1.000000  H     
 N1     1.0    0.163332    0.496668    0.752898 Biso 1.000000  N     
 N2     1.0    0.496666    0.163334    0.252898 Biso 1.000000  N     
 N3     1.0    0.496664    0.163336    0.757102 Biso 1.000000  N     
 N4     1.0    0.163330    0.496670    0.257102 Biso 1.000000  N     
 N5     1.0    0.830002    0.829998    0.255000 Biso 1.000000  N     
 N6     1.0    0.830002    0.829998    0.755000 Biso 1.000000  N     
