_cell_length_a                         12.668500
_cell_length_b                         12.668500
_cell_length_c                         8.537400
_cell_angle_alpha                      90.000000
_cell_angle_beta                       90.000000
_cell_angle_gamma                      120.000000
_space_group_IT_number                 1
 loop_
 _space_group_symop_operation_xyz 
 'x, y, z' 
 loop_ 
 _atom_site_label 
 _atom_site_occupancy 
 _atom_site_fract_x 
 _atom_site_fract_y
 _atom_site_fract_z
 _atom_site_adp_type
 _atom_site_U_iso_or_equiv
 _atom_site_type_symbol
 Mn1    1.0    0.161782    0.164848    0.754220 Biso 1.000000  Mn    
 Mn2    1.0    0.833066    0.498218    0.754220 Biso 1.000000  Mn    
 Mn3    1.0    0.495152    0.826934    0.754220 Biso 1.000000  Mn    
 Mn4    1.0    0.498218    0.495152    0.254220 Biso 1.000000  Mn    
 Mn5    1.0    0.826934    0.161782    0.254220 Biso 1.000000  Mn    
 Mn6    1.0    0.164848    0.833066    0.254220 Biso 1.000000  Mn    
 O1     1.0    0.094918    0.258828    0.901346 Biso 1.000000  O     
 O2     1.0    0.993910    0.565082    0.901346 Biso 1.000000  O     
 O3     1.0    0.401172    0.666090    0.901346 Biso 1.000000  O     
 O4     1.0    0.565082    0.401172    0.401346 Biso 1.000000  O     
 O5     1.0    0.666090    0.094918    0.401346 Biso 1.000000  O     
 O6     1.0    0.258828    0.993910    0.401346 Biso 1.000000  O     
 O7     1.0    0.990130    0.261432    0.109266 Biso 1.000000  O     
 O8     1.0    0.101302    0.669870    0.109266 Biso 1.000000  O     
 O9     1.0    0.398568    0.558698    0.109266 Biso 1.000000  O     
 O10    1.0    0.669870    0.398568    0.609266 Biso 1.000000  O     
 O11    1.0    0.558698    0.990130    0.609266 Biso 1.000000  O     
 O12    1.0    0.261432    0.101302    0.609266 Biso 1.000000  O     
 O13    1.0    0.322812    0.228548    0.902668 Biso 1.000000  O     
 O14    1.0    0.735736    0.337188    0.902668 Biso 1.000000  O     
 O15    1.0    0.431452    0.924264    0.902668 Biso 1.000000  O     
 O16    1.0    0.337188    0.431452    0.402668 Biso 1.000000  O     
 O17    1.0    0.924264    0.322812    0.402668 Biso 1.000000  O     
 O18    1.0    0.228548    0.735736    0.402668 Biso 1.000000  O     
 O19    1.0    0.431428    0.331662    0.110068 Biso 1.000000  O     
 O20    1.0    0.730234    0.228572    0.110068 Biso 1.000000  O     
 O21    1.0    0.328338    0.929766    0.110068 Biso 1.000000  O     
 O22    1.0    0.228572    0.328338    0.610068 Biso 1.000000  O     
 O23    1.0    0.929766    0.431428    0.610068 Biso 1.000000  O     
 O24    1.0    0.331662    0.730234    0.610068 Biso 1.000000  O     
 O25    1.0    0.062432    1.000174    0.895700 Biso 1.000000  O     
 O26    1.0    0.767742    0.597568    0.895700 Biso 1.000000  O     
 O27    1.0    0.659826    0.892258    0.895700 Biso 1.000000  O     
 O28    1.0    0.597568    0.659826    0.395700 Biso 1.000000  O     
 O29    1.0    0.892258    0.062432    0.395700 Biso 1.000000  O     
 O30    1.0    1.000174    0.767742    0.395700 Biso 1.000000  O     
 O31    1.0    0.070208    0.898012    0.103260 Biso 1.000000  O     
 O32    1.0    0.657804    0.589792    0.103260 Biso 1.000000  O     
 O33    1.0    0.761988    0.002196    0.103260 Biso 1.000000  O     
 O34    1.0    0.589792    0.761988    0.603260 Biso 1.000000  O     
 O35    1.0    0.002196    0.070208    0.603260 Biso 1.000000  O     
 O36    1.0    0.898012    0.657804    0.603260 Biso 1.000000  O     
 C1     1.0    0.020946    0.209630    0.011420 Biso 1.000000  C     
 C2     1.0    0.018684    0.639054    0.011420 Biso 1.000000  C     
 C3     1.0    0.450370    0.641316    0.011420 Biso 1.000000  C     
 C4     1.0    0.639054    0.450370    0.511420 Biso 1.000000  C     
 C5     1.0    0.641316    0.020946    0.511420 Biso 1.000000  C     
 C6     1.0    0.209630    0.018684    0.511420 Biso 1.000000  C     
 C7     1.0    0.348360    0.301470    0.013760 Biso 1.000000  C     
 C8     1.0    0.783110    0.311640    0.013760 Biso 1.000000  C     
 C9     1.0    0.358530    0.876890    0.013760 Biso 1.000000  C     
 C10    1.0    0.311640    0.358530    0.513760 Biso 1.000000  C     
 C11    1.0    0.876890    0.348360    0.513760 Biso 1.000000  C     
 C12    1.0    0.301470    0.783110    0.513760 Biso 1.000000  C     
 C13    1.0    0.116600    0.967984    0.990120 Biso 1.000000  C     
 C14    1.0    0.681384    0.543400    0.990120 Biso 1.000000  C     
 C15    1.0    0.692016    0.978616    0.990120 Biso 1.000000  C     
 C16    1.0    0.543400    0.692016    0.490120 Biso 1.000000  C     
 C17    1.0    0.978616    0.116600    0.490120 Biso 1.000000  C     
 C18    1.0    0.967984    0.681384    0.490120 Biso 1.000000  C     
 H1     1.0    0.985160    0.124900    0.020900 Biso 1.000000  H     
 H2     1.0    0.969740    0.674840    0.020900 Biso 1.000000  H     
 H3     1.0    0.535100    0.690260    0.020900 Biso 1.000000  H     
 H4     1.0    0.674840    0.535100    0.520900 Biso 1.000000  H     
 H5     1.0    0.690260    0.985160    0.520900 Biso 1.000000  H     
 H6     1.0    0.124900    0.969740    0.520900 Biso 1.000000  H     
 H7     1.0    0.299520    0.337020    0.025280 Biso 1.000000  H     
 H8     1.0    0.867500    0.360480    0.025280 Biso 1.000000  H     
 H9     1.0    0.322980    0.792500    0.025280 Biso 1.000000  H     
 H10    1.0    0.360480    0.322980    0.525280 Biso 1.000000  H     
 H11    1.0    0.792500    0.299520    0.525280 Biso 1.000000  H     
 H12    1.0    0.337020    0.867500    0.525280 Biso 1.000000  H     
 H13    1.0    0.198500    0.999040    0.974220 Biso 1.000000  H     
 H14    1.0    0.630540    0.461500    0.974220 Biso 1.000000  H     
 H15    1.0    0.660960    0.029460    0.974220 Biso 1.000000  H     
 H16    1.0    0.461500    0.660960    0.474220 Biso 1.000000  H     
 H17    1.0    0.029460    0.198500    0.474220 Biso 1.000000  H     
 H18    1.0    0.999040    0.630540    0.474220 Biso 1.000000  H     
 H19    1.0    0.132121    0.418808    0.804696 Biso 1.000000  H     
 H20    1.0    0.153793    0.532545    0.864791 Biso 1.000000  H     
 H21    1.0    0.242299    0.527387    0.767889 Biso 1.000000  H     
 H22    1.0    0.553355    0.233685    0.320222 Biso 1.000000  H     
 H23    1.0    0.531682    0.119949    0.260128 Biso 1.000000  H     
 H24    1.0    0.443177    0.125106    0.357029 Biso 1.000000  H     
 H25    1.0    0.126867    0.507412    0.694343 Biso 1.000000  H     
 H26    1.0    0.460201    0.174078    0.194343 Biso 1.000000  H     
 H27    1.0    0.483182    0.196800    0.874398 Biso 1.000000  H     
 H28    1.0    0.579972    0.199797    0.774269 Biso 1.000000  H     
 H29    1.0    0.468589    0.082335    0.808110 Biso 1.000000  H     
 H30    1.0    0.204646    0.455822    0.263453 Biso 1.000000  H     
 H31    1.0    0.107857    0.452824    0.363582 Biso 1.000000  H     
 H32    1.0    0.219239    0.570287    0.329740 Biso 1.000000  H     
 H33    1.0    0.458479    0.173458    0.695955 Biso 1.000000  H     
 H34    1.0    0.125145    0.506792    0.195955 Biso 1.000000  H     
 H35    1.0    0.877664    0.845332    0.134085 Biso 1.000000  H     
 H36    1.0    0.756996    0.761974    0.201201 Biso 1.000000  H     
 H37    1.0    0.816493    0.893562    0.233386 Biso 1.000000  H     
 H38    1.0    0.756438    0.821913    0.745030 Biso 1.000000  H     
 H39    1.0    0.877106    0.905271    0.677914 Biso 1.000000  H     
 H40    1.0    0.817610    0.773684    0.645729 Biso 1.000000  H     
 H41    1.0    0.866610    0.819758    0.307512 Biso 1.000000  H     
 H42    1.0    0.866610    0.819758    0.807512 Biso 1.000000  H     
 N1     1.0    0.163332    0.496667    0.781878 Biso 1.000000  N     
 N2     1.0    0.496666    0.163333    0.281878 Biso 1.000000  N     
 N3     1.0    0.496664    0.163334    0.786079 Biso 1.000000  N     
 N4     1.0    0.163330    0.496668    0.286079 Biso 1.000000  N     
 N5     1.0    0.830002    0.830000    0.220381 Biso 1.000000  N     
 N6     1.0    0.830002    0.830000    0.720381 Biso 1.000000  N     
