_cell_length_a                         12.668500
_cell_length_b                         12.668500
_cell_length_c                         8.537400
_cell_angle_alpha                      90.000000
_cell_angle_beta                       90.000000
_cell_angle_gamma                      120.000000
_space_group_IT_number                 1
 loop_
 _space_group_symop_operation_xyz 
 'x, y, z' 
 loop_ 
 _atom_site_label 
 _atom_site_occupancy 
 _atom_site_fract_x 
 _atom_site_fract_y
 _atom_site_fract_z
 _atom_site_adp_type
 _atom_site_U_iso_or_equiv
 _atom_site_type_symbol
 Mn1    1.0    0.163826    0.162804    0.755260 Biso 1.000000  Mn    
 Mn2    1.0    0.828978    0.496174    0.755260 Biso 1.000000  Mn    
 Mn3    1.0    0.497196    0.831022    0.755260 Biso 1.000000  Mn    
 Mn4    1.0    0.496174    0.497196    0.255260 Biso 1.000000  Mn    
 Mn5    1.0    0.831022    0.163826    0.255260 Biso 1.000000  Mn    
 Mn6    1.0    0.162804    0.828978    0.255260 Biso 1.000000  Mn    
 O1     1.0    0.099174    0.260564    0.900938 Biso 1.000000  O     
 O2     1.0    0.991390    0.560826    0.900938 Biso 1.000000  O     
 O3     1.0    0.399436    0.668610    0.900938 Biso 1.000000  O     
 O4     1.0    0.560826    0.399436    0.400938 Biso 1.000000  O     
 O5     1.0    0.668610    0.099174    0.400938 Biso 1.000000  O     
 O6     1.0    0.260564    0.991390    0.400938 Biso 1.000000  O     
 O7     1.0    0.992650    0.259696    0.108858 Biso 1.000000  O     
 O8     1.0    0.097046    0.667350    0.108858 Biso 1.000000  O     
 O9     1.0    0.400304    0.562954    0.108858 Biso 1.000000  O     
 O10    1.0    0.667350    0.400304    0.608858 Biso 1.000000  O     
 O11    1.0    0.562954    0.992650    0.608858 Biso 1.000000  O     
 O12    1.0    0.259696    0.097046    0.608858 Biso 1.000000  O     
 O13    1.0    0.326496    0.228564    0.900844 Biso 1.000000  O     
 O14    1.0    0.732068    0.333504    0.900844 Biso 1.000000  O     
 O15    1.0    0.431436    0.927932    0.900844 Biso 1.000000  O     
 O16    1.0    0.333504    0.431436    0.400844 Biso 1.000000  O     
 O17    1.0    0.927932    0.326496    0.400844 Biso 1.000000  O     
 O18    1.0    0.228564    0.732068    0.400844 Biso 1.000000  O     
 O19    1.0    0.431444    0.335346    0.108244 Biso 1.000000  O     
 O20    1.0    0.733902    0.228556    0.108244 Biso 1.000000  O     
 O21    1.0    0.324654    0.926098    0.108244 Biso 1.000000  O     
 O22    1.0    0.228556    0.324654    0.608244 Biso 1.000000  O     
 O23    1.0    0.926098    0.431444    0.608244 Biso 1.000000  O     
 O24    1.0    0.335346    0.733902    0.608244 Biso 1.000000  O     
 O25    1.0    0.067616    1.001522    0.903060 Biso 1.000000  O     
 O26    1.0    0.763906    0.592384    0.903060 Biso 1.000000  O     
 O27    1.0    0.658478    0.896094    0.903060 Biso 1.000000  O     
 O28    1.0    0.592384    0.658478    0.403060 Biso 1.000000  O     
 O29    1.0    0.896094    0.067616    0.403060 Biso 1.000000  O     
 O30    1.0    1.001522    0.763906    0.403060 Biso 1.000000  O     
 O31    1.0    0.065024    0.894176    0.110620 Biso 1.000000  O     
 O32    1.0    0.659152    0.594976    0.110620 Biso 1.000000  O     
 O33    1.0    0.765824    0.000848    0.110620 Biso 1.000000  O     
 O34    1.0    0.594976    0.765824    0.610620 Biso 1.000000  O     
 O35    1.0    0.000848    0.065024    0.610620 Biso 1.000000  O     
 O36    1.0    0.894176    0.659152    0.610620 Biso 1.000000  O     
 C1     1.0    0.019438    0.209630    0.002860 Biso 1.000000  C     
 C2     1.0    0.020192    0.640562    0.002860 Biso 1.000000  C     
 C3     1.0    0.450370    0.639808    0.002860 Biso 1.000000  C     
 C4     1.0    0.640562    0.450370    0.502860 Biso 1.000000  C     
 C5     1.0    0.639808    0.019438    0.502860 Biso 1.000000  C     
 C6     1.0    0.209630    0.020192    0.502860 Biso 1.000000  C     
 C7     1.0    0.355140    0.308250    0.002080 Biso 1.000000  C     
 C8     1.0    0.783110    0.304860    0.002080 Biso 1.000000  C     
 C9     1.0    0.351750    0.876890    0.002080 Biso 1.000000  C     
 C10    1.0    0.304860    0.351750    0.502080 Biso 1.000000  C     
 C11    1.0    0.876890    0.355140    0.502080 Biso 1.000000  C     
 C12    1.0    0.308250    0.783110    0.502080 Biso 1.000000  C     
 C13    1.0    0.116600    0.975072    1.009960 Biso 1.000000  C     
 C14    1.0    0.688472    0.543400    1.009960 Biso 1.000000  C     
 C15    1.0    0.684928    0.971528    1.009960 Biso 1.000000  C     
 C16    1.0    0.543400    0.684928    0.509960 Biso 1.000000  C     
 C17    1.0    0.971528    0.116600    0.509960 Biso 1.000000  C     
 C18    1.0    0.975072    0.688472    0.509960 Biso 1.000000  C     
 H1     1.0    0.974880    0.124900   -0.000300 Biso 1.000000  H     
 H2     1.0    0.980020    0.685120   -0.000300 Biso 1.000000  H     
 H3     1.0    0.535100    0.679980   -0.000300 Biso 1.000000  H     
 H4     1.0    0.685120    0.535100    0.499700 Biso 1.000000  H     
 H5     1.0    0.679980    0.974880    0.499700 Biso 1.000000  H     
 H6     1.0    0.124900    0.980020    0.499700 Biso 1.000000  H     
 H7     1.0    0.315160    0.352660   -0.001760 Biso 1.000000  H     
 H8     1.0    0.867500    0.344840   -0.001760 Biso 1.000000  H     
 H9     1.0    0.307340    0.792500   -0.001760 Biso 1.000000  H     
 H10    1.0    0.344840    0.307340    0.498240 Biso 1.000000  H     
 H11    1.0    0.792500    0.315160    0.498240 Biso 1.000000  H     
 H12    1.0    0.352660    0.867500    0.498240 Biso 1.000000  H     
 H13    1.0    0.198500    1.019320    1.015260 Biso 1.000000  H     
 H14    1.0    0.650820    0.461500    1.015260 Biso 1.000000  H     
 H15    1.0    0.640680    0.009180    1.015260 Biso 1.000000  H     
 H16    1.0    0.461500    0.640680    0.515260 Biso 1.000000  H     
 H17    1.0    0.009180    0.198500    0.515260 Biso 1.000000  H     
 H18    1.0    1.019320    0.650820    0.515260 Biso 1.000000  H     
 H19    1.0    0.104287    0.422863    0.718996 Biso 1.000000  H     
 H20    1.0    0.208150    0.488809    0.816232 Biso 1.000000  H     
 H21    1.0    0.209514    0.527106    0.659441 Biso 1.000000  H     
 H22    1.0    0.577015    0.202988    0.244118 Biso 1.000000  H     
 H23    1.0    0.473152    0.137043    0.146883 Biso 1.000000  H     
 H24    1.0    0.471788    0.098746    0.303673 Biso 1.000000  H     
 H25    1.0    0.132841    0.545547    0.776674 Biso 1.000000  H     
 H26    1.0    0.466175    0.212213    0.276674 Biso 1.000000  H     
 H27    1.0    0.542793    0.154901    0.824654 Biso 1.000000  H     
 H28    1.0    0.547443    0.198500    0.662641 Biso 1.000000  H     
 H29    1.0    0.438734    0.085705    0.717398 Biso 1.000000  H     
 H30    1.0    0.143186    0.471170    0.145140 Biso 1.000000  H     
 H31    1.0    0.138535    0.427571    0.307153 Biso 1.000000  H     
 H32    1.0    0.247245    0.540366    0.252396 Biso 1.000000  H     
 H33    1.0    0.461018    0.209893    0.781868 Biso 1.000000  H     
 H34    1.0    0.127684    0.543227    0.281868 Biso 1.000000  H     
 H35    1.0    0.831775    0.879813    0.188557 Biso 1.000000  H     
 H36    1.0    0.751132    0.782367    0.297153 Biso 1.000000  H     
 H37    1.0    0.872691    0.877535    0.349229 Biso 1.000000  H     
 H38    1.0    0.805290    0.813331    0.868069 Biso 1.000000  H     
 H39    1.0    0.885933    0.910776    0.759473 Biso 1.000000  H     
 H40    1.0    0.764375    0.815608    0.707397 Biso 1.000000  H     
 H41    1.0    0.862421    0.783148    0.233258 Biso 1.000000  H     
 H42    1.0    0.862421    0.783148    0.733258 Biso 1.000000  H     
 N1     1.0    0.163332    0.496669    0.743238 Biso 1.000000  N     
 N2     1.0    0.496666    0.163335    0.243238 Biso 1.000000  N     
 N3     1.0    0.496665    0.163336    0.747443 Biso 1.000000  N     
 N4     1.0    0.163331    0.496670    0.247443 Biso 1.000000  N     
 N5     1.0    0.830001    0.829998    0.266539 Biso 1.000000  N     
 N6     1.0    0.830001    0.829998    0.766539 Biso 1.000000  N     
