_cell_length_a                         12.668500
_cell_length_b                         12.668500
_cell_length_c                         8.537400
_cell_angle_alpha                      90.000000
_cell_angle_beta                       90.000000
_cell_angle_gamma                      120.000000
_space_group_IT_number                 1
 loop_
 _space_group_symop_operation_xyz 
 'x, y, z' 
 loop_ 
 _atom_site_label 
 _atom_site_occupancy 
 _atom_site_fract_x 
 _atom_site_fract_y
 _atom_site_fract_z
 _atom_site_adp_type
 _atom_site_U_iso_or_equiv
 _atom_site_type_symbol
 Mn1    1.0    0.164337    0.162293    0.755520 Biso 1.000000  Mn    
 Mn2    1.0    0.827956    0.495663    0.755520 Biso 1.000000  Mn    
 Mn3    1.0    0.497707    0.832044    0.755520 Biso 1.000000  Mn    
 Mn4    1.0    0.495663    0.497707    0.255520 Biso 1.000000  Mn    
 Mn5    1.0    0.832044    0.164337    0.255520 Biso 1.000000  Mn    
 Mn6    1.0    0.162293    0.827956    0.255520 Biso 1.000000  Mn    
 O1     1.0    0.100238    0.260998    0.900836 Biso 1.000000  O     
 O2     1.0    0.990760    0.559762    0.900836 Biso 1.000000  O     
 O3     1.0    0.399002    0.669240    0.900836 Biso 1.000000  O     
 O4     1.0    0.559762    0.399002    0.400836 Biso 1.000000  O     
 O5     1.0    0.669240    0.100238    0.400836 Biso 1.000000  O     
 O6     1.0    0.260998    0.990760    0.400836 Biso 1.000000  O     
 O7     1.0    0.993280    0.259262    0.108756 Biso 1.000000  O     
 O8     1.0    0.095982    0.666720    0.108756 Biso 1.000000  O     
 O9     1.0    0.400738    0.564018    0.108756 Biso 1.000000  O     
 O10    1.0    0.666720    0.400738    0.608756 Biso 1.000000  O     
 O11    1.0    0.564018    0.993280    0.608756 Biso 1.000000  O     
 O12    1.0    0.259262    0.095982    0.608756 Biso 1.000000  O     
 O13    1.0    0.327417    0.228568    0.900388 Biso 1.000000  O     
 O14    1.0    0.731151    0.332583    0.900388 Biso 1.000000  O     
 O15    1.0    0.431432    0.928849    0.900388 Biso 1.000000  O     
 O16    1.0    0.332583    0.431432    0.400388 Biso 1.000000  O     
 O17    1.0    0.928849    0.327417    0.400388 Biso 1.000000  O     
 O18    1.0    0.228568    0.731151    0.400388 Biso 1.000000  O     
 O19    1.0    0.431448    0.336267    0.107788 Biso 1.000000  O     
 O20    1.0    0.734819    0.228552    0.107788 Biso 1.000000  O     
 O21    1.0    0.323733    0.925181    0.107788 Biso 1.000000  O     
 O22    1.0    0.228552    0.323733    0.607788 Biso 1.000000  O     
 O23    1.0    0.925181    0.431448    0.607788 Biso 1.000000  O     
 O24    1.0    0.336267    0.734819    0.607788 Biso 1.000000  O     
 O25    1.0    0.068912    1.001859    0.904900 Biso 1.000000  O     
 O26    1.0    0.762947    0.591088    0.904900 Biso 1.000000  O     
 O27    1.0    0.658141    0.897053    0.904900 Biso 1.000000  O     
 O28    1.0    0.591088    0.658141    0.404900 Biso 1.000000  O     
 O29    1.0    0.897053    0.068912    0.404900 Biso 1.000000  O     
 O30    1.0    1.001859    0.762947    0.404900 Biso 1.000000  O     
 O31    1.0    0.063728    0.893217    0.112460 Biso 1.000000  O     
 O32    1.0    0.659489    0.596272    0.112460 Biso 1.000000  O     
 O33    1.0    0.766783    0.000511    0.112460 Biso 1.000000  O     
 O34    1.0    0.596272    0.766783    0.612460 Biso 1.000000  O     
 O35    1.0    0.000511    0.063728    0.612460 Biso 1.000000  O     
 O36    1.0    0.893217    0.659489    0.612460 Biso 1.000000  O     
 C1     1.0    0.019061    0.209630    0.000720 Biso 1.000000  C     
 C2     1.0    0.020569    0.640939    0.000720 Biso 1.000000  C     
 C3     1.0    0.450370    0.639431    0.000720 Biso 1.000000  C     
 C4     1.0    0.640939    0.450370    0.500720 Biso 1.000000  C     
 C5     1.0    0.639431    0.019061    0.500720 Biso 1.000000  C     
 C6     1.0    0.209630    0.020569    0.500720 Biso 1.000000  C     
 C7     1.0    0.356835    0.309945   -0.000840 Biso 1.000000  C     
 C8     1.0    0.783110    0.303165   -0.000840 Biso 1.000000  C     
 C9     1.0    0.350055    0.876890   -0.000840 Biso 1.000000  C     
 C10    1.0    0.303165    0.350055    0.499160 Biso 1.000000  C     
 C11    1.0    0.876890    0.356835    0.499160 Biso 1.000000  C     
 C12    1.0    0.309945    0.783110    0.499160 Biso 1.000000  C     
 C13    1.0    0.116600    0.976844    1.014920 Biso 1.000000  C     
 C14    1.0    0.690244    0.543400    1.014920 Biso 1.000000  C     
 C15    1.0    0.683156    0.969756    1.014920 Biso 1.000000  C     
 C16    1.0    0.543400    0.683156    0.514920 Biso 1.000000  C     
 C17    1.0    0.969756    0.116600    0.514920 Biso 1.000000  C     
 C18    1.0    0.976844    0.690244    0.514920 Biso 1.000000  C     
 H1     1.0    0.972310    0.124900   -0.005600 Biso 1.000000  H     
 H2     1.0    0.982590    0.687690   -0.005600 Biso 1.000000  H     
 H3     1.0    0.535100    0.677410   -0.005600 Biso 1.000000  H     
 H4     1.0    0.687690    0.535100    0.494400 Biso 1.000000  H     
 H5     1.0    0.677410    0.972310    0.494400 Biso 1.000000  H     
 H6     1.0    0.124900    0.982590    0.494400 Biso 1.000000  H     
 H7     1.0    0.319070    0.356570   -0.008520 Biso 1.000000  H     
 H8     1.0    0.867500    0.340930   -0.008520 Biso 1.000000  H     
 H9     1.0    0.303430    0.792500   -0.008520 Biso 1.000000  H     
 H10    1.0    0.340930    0.303430    0.491480 Biso 1.000000  H     
 H11    1.0    0.792500    0.319070    0.491480 Biso 1.000000  H     
 H12    1.0    0.356570    0.867500    0.491480 Biso 1.000000  H     
 H13    1.0    0.198500    1.024390    1.025520 Biso 1.000000  H     
 H14    1.0    0.655890    0.461500    1.025520 Biso 1.000000  H     
 H15    1.0    0.635610    0.004110    1.025520 Biso 1.000000  H     
 H16    1.0    0.461500    0.635610    0.525520 Biso 1.000000  H     
 H17    1.0    0.004110    0.198500    0.525520 Biso 1.000000  H     
 H18    1.0    1.024390    0.655890    0.525520 Biso 1.000000  H     
 H19    1.0    0.097102    0.430980    0.700675 Biso 1.000000  H     
 H20    1.0    0.208265    0.472216    0.783388 Biso 1.000000  H     
 H21    1.0    0.204440    0.537319    0.650014 Biso 1.000000  H     
 H22    1.0    0.576105    0.196029    0.222045 Biso 1.000000  H     
 H23    1.0    0.464941    0.154793    0.139331 Biso 1.000000  H     
 H24    1.0    0.468766    0.089690    0.272705 Biso 1.000000  H     
 H25    1.0    0.144429    0.543891    0.797176 Biso 1.000000  H     
 H26    1.0    0.477763    0.210557    0.297176 Biso 1.000000  H     
 H27    1.0    0.544369    0.138840    0.790271 Biso 1.000000  H     
 H28    1.0    0.541184    0.208007    0.652456 Biso 1.000000  H     
 H29    1.0    0.430529    0.093759    0.699034 Biso 1.000000  H     
 H30    1.0    0.133017    0.488231    0.137568 Biso 1.000000  H     
 H31    1.0    0.136203    0.419064    0.275384 Biso 1.000000  H     
 H32    1.0    0.246858    0.533312    0.228805 Biso 1.000000  H     
 H33    1.0    0.472808    0.208520    0.803263 Biso 1.000000  H     
 H34    1.0    0.139474    0.541854    0.303263 Biso 1.000000  H     
 H35    1.0    0.832646    0.893213    0.224123 Biso 1.000000  H     
 H36    1.0    0.753204    0.783580    0.316500 Biso 1.000000  H     
 H37    1.0    0.881917    0.861350    0.360798 Biso 1.000000  H     
 H38    1.0    0.812532    0.798882    0.876825 Biso 1.000000  H     
 H39    1.0    0.891974    0.908515    0.784447 Biso 1.000000  H     
 H40    1.0    0.763261    0.830745    0.740149 Biso 1.000000  H     
 H41    1.0    0.850953    0.784630    0.214775 Biso 1.000000  H     
 H42    1.0    0.850953    0.784630    0.714775 Biso 1.000000  H     
 N1     1.0    0.163332    0.496669    0.733578 Biso 1.000000  N     
 N2     1.0    0.496666    0.163335    0.233578 Biso 1.000000  N     
 N3     1.0    0.496665    0.163336    0.737784 Biso 1.000000  N     
 N4     1.0    0.163331    0.496670    0.237784 Biso 1.000000  N     
 N5     1.0    0.830001    0.829998    0.278079 Biso 1.000000  N     
 N6     1.0    0.830001    0.829998    0.778079 Biso 1.000000  N     
