_cell_length_a                         12.668500
_cell_length_b                         12.668500
_cell_length_c                         8.537400
_cell_angle_alpha                      90.000000
_cell_angle_beta                       90.000000
_cell_angle_gamma                      120.000000
_space_group_IT_number                 1
 loop_
 _space_group_symop_operation_xyz 
 'x, y, z' 
 loop_ 
 _atom_site_label 
 _atom_site_occupancy 
 _atom_site_fract_x 
 _atom_site_fract_y
 _atom_site_fract_z
 _atom_site_adp_type
 _atom_site_U_iso_or_equiv
 _atom_site_type_symbol
 Mn1    1.0    0.165870    0.160760    0.756300 Biso 1.000000  Mn    
 Mn2    1.0    0.824890    0.494130    0.756300 Biso 1.000000  Mn    
 Mn3    1.0    0.499240    0.835110    0.756300 Biso 1.000000  Mn    
 Mn4    1.0    0.494130    0.499240    0.256300 Biso 1.000000  Mn    
 Mn5    1.0    0.835110    0.165870    0.256300 Biso 1.000000  Mn    
 Mn6    1.0    0.160760    0.824890    0.256300 Biso 1.000000  Mn    
 O1     1.0    0.103430    0.262300    0.900530 Biso 1.000000  O     
 O2     1.0    0.988870    0.556570    0.900530 Biso 1.000000  O     
 O3     1.0    0.397700    0.671130    0.900530 Biso 1.000000  O     
 O4     1.0    0.556570    0.397700    0.400530 Biso 1.000000  O     
 O5     1.0    0.671130    0.103430    0.400530 Biso 1.000000  O     
 O6     1.0    0.262300    0.988870    0.400530 Biso 1.000000  O     
 O7     1.0    0.995170    0.257960    0.108450 Biso 1.000000  O     
 O8     1.0    0.092790    0.664830    0.108450 Biso 1.000000  O     
 O9     1.0    0.402040    0.567210    0.108450 Biso 1.000000  O     
 O10    1.0    0.664830    0.402040    0.608450 Biso 1.000000  O     
 O11    1.0    0.567210    0.995170    0.608450 Biso 1.000000  O     
 O12    1.0    0.257960    0.092790    0.608450 Biso 1.000000  O     
 O13    1.0    0.330180    0.228580    0.899020 Biso 1.000000  O     
 O14    1.0    0.728400    0.329820    0.899020 Biso 1.000000  O     
 O15    1.0    0.431420    0.931600    0.899020 Biso 1.000000  O     
 O16    1.0    0.329820    0.431420    0.399020 Biso 1.000000  O     
 O17    1.0    0.931600    0.330180    0.399020 Biso 1.000000  O     
 O18    1.0    0.228580    0.728400    0.399020 Biso 1.000000  O     
 O19    1.0    0.431460    0.339030    0.106420 Biso 1.000000  O     
 O20    1.0    0.737570    0.228540    0.106420 Biso 1.000000  O     
 O21    1.0    0.320970    0.922430    0.106420 Biso 1.000000  O     
 O22    1.0    0.228540    0.320970    0.606420 Biso 1.000000  O     
 O23    1.0    0.922430    0.431460    0.606420 Biso 1.000000  O     
 O24    1.0    0.339030    0.737570    0.606420 Biso 1.000000  O     
 O25    1.0    0.072800    1.002870    0.910420 Biso 1.000000  O     
 O26    1.0    0.760070    0.587200    0.910420 Biso 1.000000  O     
 O27    1.0    0.657130    0.899930    0.910420 Biso 1.000000  O     
 O28    1.0    0.587200    0.657130    0.410420 Biso 1.000000  O     
 O29    1.0    0.899930    0.072800    0.410420 Biso 1.000000  O     
 O30    1.0    1.002870    0.760070    0.410420 Biso 1.000000  O     
 O31    1.0    0.059840    0.890340    0.117980 Biso 1.000000  O     
 O32    1.0    0.660500    0.600160    0.117980 Biso 1.000000  O     
 O33    1.0    0.769660   -0.000500    0.117980 Biso 1.000000  O     
 O34    1.0    0.600160    0.769660    0.617980 Biso 1.000000  O     
 O35    1.0   -0.000500    0.059840    0.617980 Biso 1.000000  O     
 O36    1.0    0.890340    0.660500    0.617980 Biso 1.000000  O     
 C1     1.0    0.017930    0.209630   -0.005700 Biso 1.000000  C     
 C2     1.0    0.021700    0.642070   -0.005700 Biso 1.000000  C     
 C3     1.0    0.450370    0.638300   -0.005700 Biso 1.000000  C     
 C4     1.0    0.642070    0.450370    0.494300 Biso 1.000000  C     
 C5     1.0    0.638300    0.017930    0.494300 Biso 1.000000  C     
 C6     1.0    0.209630    0.021700    0.494300 Biso 1.000000  C     
 C7     1.0    0.361920    0.315030   -0.009600 Biso 1.000000  C     
 C8     1.0    0.783110    0.298080   -0.009600 Biso 1.000000  C     
 C9     1.0    0.344970    0.876890   -0.009600 Biso 1.000000  C     
 C10    1.0    0.298080    0.344970    0.490400 Biso 1.000000  C     
 C11    1.0    0.876890    0.361920    0.490400 Biso 1.000000  C     
 C12    1.0    0.315030    0.783110    0.490400 Biso 1.000000  C     
 C13    1.0    0.116600    0.982160    1.029800 Biso 1.000000  C     
 C14    1.0    0.695560    0.543400    1.029800 Biso 1.000000  C     
 C15    1.0    0.677840    0.964440    1.029800 Biso 1.000000  C     
 C16    1.0    0.543400    0.677840    0.529800 Biso 1.000000  C     
 C17    1.0    0.964440    0.116600    0.529800 Biso 1.000000  C     
 C18    1.0    0.982160    0.695560    0.529800 Biso 1.000000  C     
 H1     1.0    0.964600    0.124900   -0.021500 Biso 1.000000  H     
 H2     1.0    0.990300    0.695400   -0.021500 Biso 1.000000  H     
 H3     1.0    0.535100    0.669700   -0.021500 Biso 1.000000  H     
 H4     1.0    0.695400    0.535100    0.478500 Biso 1.000000  H     
 H5     1.0    0.669700    0.964600    0.478500 Biso 1.000000  H     
 H6     1.0    0.124900    0.990300    0.478500 Biso 1.000000  H     
 H7     1.0    0.330800    0.368300   -0.028800 Biso 1.000000  H     
 H8     1.0    0.867500    0.329200   -0.028800 Biso 1.000000  H     
 H9     1.0    0.291700    0.792500   -0.028800 Biso 1.000000  H     
 H10    1.0    0.329200    0.291700    0.471200 Biso 1.000000  H     
 H11    1.0    0.792500    0.330800    0.471200 Biso 1.000000  H     
 H12    1.0    0.368300    0.867500    0.471200 Biso 1.000000  H     
 H13    1.0    0.198500    1.039600    1.056300 Biso 1.000000  H     
 H14    1.0    0.671100    0.461500    1.056300 Biso 1.000000  H     
 H15    1.0    0.620400   -0.011100    1.056300 Biso 1.000000  H     
 H16    1.0    0.461500    0.620400    0.556300 Biso 1.000000  H     
 H17    1.0   -0.011100    0.198500    0.556300 Biso 1.000000  H     
 H18    1.0    1.039600    0.671100    0.556300 Biso 1.000000  H     
 H19    1.0    0.089832    0.471826    0.666796 Biso 1.000000  H     
 H20    1.0    0.188174    0.448008    0.666796 Biso 1.000000  H     
 H21    1.0    0.211992    0.570168    0.666796 Biso 1.000000  H     
 H22    1.0    0.570168    0.188174    0.166796 Biso 1.000000  H     
 H23    1.0    0.471826    0.211992    0.166796 Biso 1.000000  H     
 H24    1.0    0.448008    0.089832    0.166796 Biso 1.000000  H     
 H25    1.0    0.163333    0.496667    0.812796 Biso 1.000000  H     
 H26    1.0    0.496667    0.163333    0.312796 Biso 1.000000  H     
 H27    1.0    0.525961    0.115504    0.668204 Biso 1.000000  H     
 H28    1.0    0.544496    0.240455    0.668204 Biso 1.000000  H     
 H29    1.0    0.419545    0.134039    0.668204 Biso 1.000000  H     
 H30    1.0    0.134039    0.544496    0.168204 Biso 1.000000  H     
 H31    1.0    0.115504    0.419545    0.168204 Biso 1.000000  H     
 H32    1.0    0.240455    0.525961    0.168204 Biso 1.000000  H     
 H33    1.0    0.496667    0.163333    0.820204 Biso 1.000000  H     
 H34    1.0    0.163333    0.496667    0.320204 Biso 1.000000  H     
 H35    1.0    0.854600    0.905900    0.350800 Biso 1.000000  H     
 H36    1.0    0.754100    0.778700    0.350800 Biso 1.000000  H     
 H37    1.0    0.881300    0.805400    0.350800 Biso 1.000000  H     
 H38    1.0    0.805400    0.754100    0.850800 Biso 1.000000  H     
 H39    1.0    0.905900    0.881300    0.850800 Biso 1.000000  H     
 H40    1.0    0.778700    0.854600    0.850800 Biso 1.000000  H     
 H41    1.0    0.830000    0.830000    0.205000 Biso 1.000000  H     
 H42    1.0    0.830000    0.830000    0.705000 Biso 1.000000  H     
 N1     1.0    0.163333    0.496667    0.704596 Biso 1.000000  N     
 N2     1.0    0.496667    0.163333    0.204596 Biso 1.000000  N     
 N3     1.0    0.496667    0.163333    0.708804 Biso 1.000000  N     
 N4     1.0    0.163333    0.496667    0.208804 Biso 1.000000  N     
 N5     1.0    0.830000    0.830000    0.312700 Biso 1.000000  N     
 N6     1.0    0.830000    0.830000    0.812700 Biso 1.000000  N     
