_cell_length_a                         8.242522
_cell_length_b                         12.229819
_cell_length_c                         8.641561
_cell_angle_alpha                      96.702248
_cell_angle_beta                       90.000000
_cell_angle_gamma                      90.000000
_space_group_IT_number                 1
 loop_
 _space_group_symop_operation_xyz 
 'x, y, z' 
 loop_ 
 _atom_site_label 
 _atom_site_occupancy 
 _atom_site_fract_x 
 _atom_site_fract_y
 _atom_site_fract_z
 _atom_site_adp_type
 _atom_site_U_iso_or_equiv
 _atom_site_type_symbol
 Zn1    1.0    0.249368    0.999088    0.749402 Biso 1.000000  Zn    
 Zn2    1.0    0.750632    0.999088    0.249402 Biso 1.000000  Zn    
 Zn3    1.0    0.749368    0.499088    0.249402 Biso 1.000000  Zn    
 Zn4    1.0    0.250632    0.499088    0.749402 Biso 1.000000  Zn    
 O1     1.0    0.358642    0.157054    0.744914 Biso 1.000000  O     
 O2     1.0    0.641358    0.157054    0.244914 Biso 1.000000  O     
 O3     1.0    0.858642    0.657054    0.244914 Biso 1.000000  O     
 O4     1.0    0.141358    0.657054    0.744914 Biso 1.000000  O     
 O5     1.0    0.474266    0.550998    0.664108 Biso 1.000000  O     
 O6     1.0    0.525734    0.550998    0.164108 Biso 1.000000  O     
 O7     1.0    0.974266    0.050998    0.164108 Biso 1.000000  O     
 O8     1.0    0.025734    0.050998    0.664108 Biso 1.000000  O     
 O9     1.0    0.166724    0.048394    0.980902 Biso 1.000000  O     
 O10    1.0    0.833276    0.048394    0.480902 Biso 1.000000  O     
 O11    1.0    0.666724    0.548394    0.480902 Biso 1.000000  O     
 O12    1.0    0.333276    0.548394    0.980902 Biso 1.000000  O     
 O13    1.0    0.027746    0.445028    0.835498 Biso 1.000000  O     
 O14    1.0    0.972254    0.445028    0.335498 Biso 1.000000  O     
 O15    1.0    0.527746    0.945028    0.335498 Biso 1.000000  O     
 O16    1.0    0.472254    0.945028    0.835498 Biso 1.000000  O     
 O17    1.0    0.334144    0.948314    0.517612 Biso 1.000000  O     
 O18    1.0    0.665856    0.948314    0.017612 Biso 1.000000  O     
 O19    1.0    0.834144    0.448314    0.017612 Biso 1.000000  O     
 O20    1.0    0.165856    0.448314    0.517612 Biso 1.000000  O     
 O21    1.0    0.359328    0.340034    0.752964 Biso 1.000000  O     
 O22    1.0    0.640672    0.340034    0.252964 Biso 1.000000  O     
 O23    1.0    0.859328    0.840034    0.252964 Biso 1.000000  O     
 O24    1.0    0.140672    0.840034    0.752964 Biso 1.000000  O     
 C1     1.0    0.221390    0.671781    0.126845 Biso 1.000000  C     
 C2     1.0    0.778610    0.780908    0.925757 Biso 1.000000  C     
 C3     1.0    0.721390    0.280908    0.925757 Biso 1.000000  C     
 C4     1.0    0.278610    0.171781    0.126845 Biso 1.000000  C     
 C5     1.0    0.285350    0.248556    0.749002 Biso 1.000000  C     
 C6     1.0    0.714650    0.248556    0.249002 Biso 1.000000  C     
 C7     1.0    0.785350    0.748556    0.249002 Biso 1.000000  C     
 C8     1.0    0.214650    0.748556    0.749002 Biso 1.000000  C     
 C9     1.0    0.024488    0.028886    0.026496 Biso 1.000000  C     
 C10    1.0    0.975512    0.028886    0.526496 Biso 1.000000  C     
 C11    1.0    0.524488    0.528886    0.526496 Biso 1.000000  C     
 C12    1.0    0.475512    0.528886    0.026496 Biso 1.000000  C     
 C13    1.0    0.475008    0.971326    0.471276 Biso 1.000000  C     
 C14    1.0    0.524992    0.971326    0.971276 Biso 1.000000  C     
 C15    1.0    0.975008    0.471326    0.971276 Biso 1.000000  C     
 C16    1.0    0.024992    0.471326    0.471276 Biso 1.000000  C     
 C17    1.0    0.262990    0.866294    0.232931 Biso 1.000000  C     
 C18    1.0    0.737010    0.654472    0.684341 Biso 1.000000  C     
 C19    1.0    0.762990    0.154472    0.684341 Biso 1.000000  C     
 C20    1.0    0.237010    0.366294    0.232931 Biso 1.000000  C     
 H1     1.0    0.351750    0.655169    0.119540 Biso 1.000000  H     
 H2     1.0    0.648250    0.792440    0.945077 Biso 1.000000  H     
 H3     1.0    0.851750    0.292440    0.945077 Biso 1.000000  H     
 H4     1.0    0.148250    0.155169    0.119540 Biso 1.000000  H     
 H5     1.0    0.154430    0.597712    0.147138 Biso 1.000000  H     
 H6     1.0    0.845570    0.854433    0.972781 Biso 1.000000  H     
 H7     1.0    0.654430    0.354433    0.972781 Biso 1.000000  H     
 H8     1.0    0.345570    0.097712    0.147138 Biso 1.000000  H     
 H9     1.0    0.180790    0.700563    0.018298 Biso 1.000000  H     
 H10    1.0    0.819210    0.710242    0.981969 Biso 1.000000  H     
 H11    1.0    0.680790    0.210242    0.981969 Biso 1.000000  H     
 H12    1.0    0.319210    0.200563    0.018298 Biso 1.000000  H     
 H13    1.0    0.151010    0.249024    0.749132 Biso 1.000000  H     
 H14    1.0    0.848990    0.249024    0.249132 Biso 1.000000  H     
 H15    1.0    0.651010    0.749024    0.249132 Biso 1.000000  H     
 H16    1.0    0.348990    0.749024    0.749132 Biso 1.000000  H     
 H17    1.0    0.440706    0.490942    0.440248 Biso 1.000000  H     
 H18    1.0    0.559294    0.490942    0.940248 Biso 1.000000  H     
 H19    1.0    0.940706   -0.009058    0.940248 Biso 1.000000  H     
 H20    1.0    0.059294   -0.009058    0.440248 Biso 1.000000  H     
 H21    1.0    0.054536    0.516342    0.055228 Biso 1.000000  H     
 H22    1.0    0.945464    0.516342    0.555228 Biso 1.000000  H     
 H23    1.0    0.554536    0.016342    0.555228 Biso 1.000000  H     
 H24    1.0    0.445464    0.016342    0.055228 Biso 1.000000  H     
 H25    1.0    0.241900    0.730678    0.359055 Biso 1.000000  H     
 H26    1.0    0.758100    0.826298    0.704603 Biso 1.000000  H     
 H27    1.0    0.741900    0.326298    0.704603 Biso 1.000000  H     
 H28    1.0    0.258100    0.230678    0.359055 Biso 1.000000  H     
 H29    1.0    0.065480    0.769967    0.275983 Biso 1.000000  H     
 H30    1.0    0.934520    0.757059    0.733165 Biso 1.000000  H     
 H31    1.0    0.565480    0.257059    0.733165 Biso 1.000000  H     
 H32    1.0    0.434520    0.269967    0.275983 Biso 1.000000  H     
 H33    1.0    0.235020    0.926469    0.333058 Biso 1.000000  H     
 H34    1.0    0.764980    0.643504    0.559850 Biso 1.000000  H     
 H35    1.0    0.735020    0.143504    0.559850 Biso 1.000000  H     
 H36    1.0    0.264980    0.426469    0.333058 Biso 1.000000  H     
 H37    1.0    0.394570    0.857252    0.221231 Biso 1.000000  H     
 H38    1.0    0.605430    0.657518    0.700571 Biso 1.000000  H     
 H39    1.0    0.894570    0.157518    0.700571 Biso 1.000000  H     
 H40    1.0    0.105430    0.357252    0.221231 Biso 1.000000  H     
 H41    1.0    0.212160    0.891459    0.125689 Biso 1.000000  H     
 H42    1.0    0.787840    0.587527    0.742616 Biso 1.000000  H     
 H43    1.0    0.712160    0.087527    0.742616 Biso 1.000000  H     
 H44    1.0    0.287840    0.391459    0.125689 Biso 1.000000  H     
 N1     1.0    0.191440    0.758593    0.258387 Biso 1.000000  N     
 N2     1.0    0.808560    0.759688    0.755712 Biso 1.000000  N     
 N3     1.0    0.691440    0.259688    0.755712 Biso 1.000000  N     
 N4     1.0    0.308560    0.258593    0.258387 Biso 1.000000  N     
