_cell_length_a                         8.242522
_cell_length_b                         12.229819
_cell_length_c                         8.641561
_cell_angle_alpha                      96.702248
_cell_angle_beta                       90.000000
_cell_angle_gamma                      90.000000
_space_group_IT_number                 1
 loop_
 _space_group_symop_operation_xyz 
 'x, y, z' 
 loop_ 
 _atom_site_label 
 _atom_site_occupancy 
 _atom_site_fract_x 
 _atom_site_fract_y
 _atom_site_fract_z
 _atom_site_adp_type
 _atom_site_U_iso_or_equiv
 _atom_site_type_symbol
 Zn1    1.0    0.247472    0.996352    0.747608 Biso 1.000000  Zn    
 Zn2    1.0    0.752528    0.996352    0.247608 Biso 1.000000  Zn    
 Zn3    1.0    0.747472    0.496352    0.247608 Biso 1.000000  Zn    
 Zn4    1.0    0.252528    0.496352    0.747608 Biso 1.000000  Zn    
 O1     1.0    0.357613    0.152686    0.741731 Biso 1.000000  O     
 O2     1.0    0.642387    0.152686    0.241731 Biso 1.000000  O     
 O3     1.0    0.857613    0.652686    0.241731 Biso 1.000000  O     
 O4     1.0    0.142387    0.652686    0.741731 Biso 1.000000  O     
 O5     1.0    0.477284    0.545037    0.663517 Biso 1.000000  O     
 O6     1.0    0.522716    0.545037    0.163517 Biso 1.000000  O     
 O7     1.0    0.977284    0.045037    0.163517 Biso 1.000000  O     
 O8     1.0    0.022716    0.045037    0.663517 Biso 1.000000  O     
 O9     1.0    0.168026    0.043456    0.978673 Biso 1.000000  O     
 O10    1.0    0.831974    0.043456    0.478673 Biso 1.000000  O     
 O11    1.0    0.668026    0.543456    0.478673 Biso 1.000000  O     
 O12    1.0    0.331974    0.543456    0.978673 Biso 1.000000  O     
 O13    1.0    0.030764    0.439067    0.834907 Biso 1.000000  O     
 O14    1.0    0.969236    0.439067    0.334907 Biso 1.000000  O     
 O15    1.0    0.530764    0.939067    0.334907 Biso 1.000000  O     
 O16    1.0    0.469236    0.939067    0.834907 Biso 1.000000  O     
 O17    1.0    0.335446    0.943376    0.515383 Biso 1.000000  O     
 O18    1.0    0.664554    0.943376    0.015383 Biso 1.000000  O     
 O19    1.0    0.835446    0.443376    0.015383 Biso 1.000000  O     
 O20    1.0    0.164554    0.443376    0.515383 Biso 1.000000  O     
 O21    1.0    0.360357    0.335666    0.749781 Biso 1.000000  O     
 O22    1.0    0.639643    0.335666    0.249781 Biso 1.000000  O     
 O23    1.0    0.860357    0.835666    0.249781 Biso 1.000000  O     
 O24    1.0    0.139643    0.835666    0.749781 Biso 1.000000  O     
 C1     1.0    0.221390    0.667593    0.288607 Biso 1.000000  C     
 C2     1.0    0.778610    0.703050    0.885729 Biso 1.000000  C     
 C3     1.0    0.721390    0.203050    0.885729 Biso 1.000000  C     
 C4     1.0    0.278610    0.167593    0.288607 Biso 1.000000  C     
 C5     1.0    0.285350    0.244224    0.746008 Biso 1.000000  C     
 C6     1.0    0.714650    0.244224    0.246008 Biso 1.000000  C     
 C7     1.0    0.785350    0.744224    0.246008 Biso 1.000000  C     
 C8     1.0    0.214650    0.744224    0.746008 Biso 1.000000  C     
 C9     1.0    0.023732    0.029204    0.023154 Biso 1.000000  C     
 C10    1.0    0.976268    0.029204    0.523154 Biso 1.000000  C     
 C11    1.0    0.523732    0.529204    0.523154 Biso 1.000000  C     
 C12    1.0    0.476268    0.529204    0.023154 Biso 1.000000  C     
 C13    1.0    0.474252    0.971644    0.467934 Biso 1.000000  C     
 C14    1.0    0.525748    0.971644    0.967934 Biso 1.000000  C     
 C15    1.0    0.974252    0.471644    0.967934 Biso 1.000000  C     
 C16    1.0    0.025748    0.471644    0.467934 Biso 1.000000  C     
 C17    1.0    0.262990    0.824493    0.136809 Biso 1.000000  C     
 C18    1.0    0.737010    0.755668    0.621021 Biso 1.000000  C     
 C19    1.0    0.762990    0.255668    0.621021 Biso 1.000000  C     
 C20    1.0    0.237010    0.324493    0.136809 Biso 1.000000  C     
 H1     1.0    0.351750    0.655203    0.302770 Biso 1.000000  H     
 H2     1.0    0.648250    0.699805    0.908543 Biso 1.000000  H     
 H3     1.0    0.851750    0.199805    0.908543 Biso 1.000000  H     
 H4     1.0    0.148250    0.155203    0.302770 Biso 1.000000  H     
 H5     1.0    0.154430    0.642778    0.387853 Biso 1.000000  H     
 H6     1.0    0.845570    0.726192    0.993661 Biso 1.000000  H     
 H7     1.0    0.654430    0.226192    0.993661 Biso 1.000000  H     
 H8     1.0    0.345570    0.142778    0.387853 Biso 1.000000  H     
 H9     1.0    0.180790    0.619296    0.181304 Biso 1.000000  H     
 H10    1.0    0.819210    0.622441    0.831960 Biso 1.000000  H     
 H11    1.0    0.680790    0.122441    0.831960 Biso 1.000000  H     
 H12    1.0    0.319210    0.119296    0.181304 Biso 1.000000  H     
 H13    1.0    0.151010    0.246096    0.746528 Biso 1.000000  H     
 H14    1.0    0.848990    0.246096    0.246528 Biso 1.000000  H     
 H15    1.0    0.651010    0.746096    0.246528 Biso 1.000000  H     
 H16    1.0    0.348990    0.746096    0.746528 Biso 1.000000  H     
 H17    1.0    0.433569    0.501868    0.433462 Biso 1.000000  H     
 H18    1.0    0.566431    0.501868    0.933462 Biso 1.000000  H     
 H19    1.0    0.933569    0.001868    0.933462 Biso 1.000000  H     
 H20    1.0    0.066431    0.001868    0.433462 Biso 1.000000  H     
 H21    1.0    0.047399    0.527268    0.048442 Biso 1.000000  H     
 H22    1.0    0.952601    0.527268    0.548442 Biso 1.000000  H     
 H23    1.0    0.547399    0.027268    0.548442 Biso 1.000000  H     
 H24    1.0    0.452601    0.027268    0.048442 Biso 1.000000  H     
 H25    1.0    0.241900    0.830269    0.379274 Biso 1.000000  H     
 H26    1.0    0.758100    0.861337    0.829090 Biso 1.000000  H     
 H27    1.0    0.741900    0.361337    0.829090 Biso 1.000000  H     
 H28    1.0    0.258100    0.330269    0.379274 Biso 1.000000  H     
 H29    1.0    0.065480    0.801812    0.277255 Biso 1.000000  H     
 H30    1.0    0.934520    0.797618    0.763343 Biso 1.000000  H     
 H31    1.0    0.565480    0.297618    0.763343 Biso 1.000000  H     
 H32    1.0    0.434520    0.301812    0.277255 Biso 1.000000  H     
 H33    1.0    0.235020    0.911774    0.135809 Biso 1.000000  H     
 H34    1.0    0.764980    0.819833    0.547039 Biso 1.000000  H     
 H35    1.0    0.735020    0.319833    0.547039 Biso 1.000000  H     
 H36    1.0    0.264980    0.411774    0.135809 Biso 1.000000  H     
 H37    1.0    0.394570    0.813304    0.139243 Biso 1.000000  H     
 H38    1.0    0.605430    0.748407    0.632530 Biso 1.000000  H     
 H39    1.0    0.894570    0.248407    0.632530 Biso 1.000000  H     
 H40    1.0    0.105430    0.313304    0.139243 Biso 1.000000  H     
 H41    1.0    0.212160    0.775166    0.034567 Biso 1.000000  H     
 H42    1.0    0.787840    0.676412    0.572559 Biso 1.000000  H     
 H43    1.0    0.712160    0.176412    0.572559 Biso 1.000000  H     
 H44    1.0    0.287840    0.275166    0.034567 Biso 1.000000  H     
 N1     1.0    0.191440    0.786079    0.278351 Biso 1.000000  N     
 N2     1.0    0.808560    0.786435    0.777482 Biso 1.000000  N     
 N3     1.0    0.691440    0.286435    0.777482 Biso 1.000000  N     
 N4     1.0    0.308560    0.286079    0.278351 Biso 1.000000  N     
