_cell_length_a                         8.242522
_cell_length_b                         12.229819
_cell_length_c                         8.641561
_cell_angle_alpha                      96.702248
_cell_angle_beta                       90.000000
_cell_angle_gamma                      90.000000
_space_group_IT_number                 1
 loop_
 _space_group_symop_operation_xyz 
 'x, y, z' 
 loop_ 
 _atom_site_label 
 _atom_site_occupancy 
 _atom_site_fract_x 
 _atom_site_fract_y
 _atom_site_fract_z
 _atom_site_adp_type
 _atom_site_U_iso_or_equiv
 _atom_site_type_symbol
 Zn1    1.0    0.251264    1.001824    0.751196 Biso 1.000000  Zn    
 Zn2    1.0    0.748736    1.001824    0.251196 Biso 1.000000  Zn    
 Zn3    1.0    0.751264    0.501824    0.251196 Biso 1.000000  Zn    
 Zn4    1.0    0.248736    0.501824    0.751196 Biso 1.000000  Zn    
 O1     1.0    0.359671    0.161422    0.748097 Biso 1.000000  O     
 O2     1.0    0.640329    0.161422    0.248097 Biso 1.000000  O     
 O3     1.0    0.859671    0.661422    0.248097 Biso 1.000000  O     
 O4     1.0    0.140329    0.661422    0.748097 Biso 1.000000  O     
 O5     1.0    0.471248    0.556959    0.664699 Biso 1.000000  O     
 O6     1.0    0.528752    0.556959    0.164699 Biso 1.000000  O     
 O7     1.0    0.971248    0.056959    0.164699 Biso 1.000000  O     
 O8     1.0    0.028752    0.056959    0.664699 Biso 1.000000  O     
 O9     1.0    0.165422    0.053332    0.983131 Biso 1.000000  O     
 O10    1.0    0.834578    0.053332    0.483131 Biso 1.000000  O     
 O11    1.0    0.665422    0.553332    0.483131 Biso 1.000000  O     
 O12    1.0    0.334578    0.553332    0.983131 Biso 1.000000  O     
 O13    1.0    0.024728    0.450989    0.836089 Biso 1.000000  O     
 O14    1.0    0.975272    0.450989    0.336089 Biso 1.000000  O     
 O15    1.0    0.524728    0.950989    0.336089 Biso 1.000000  O     
 O16    1.0    0.475272    0.950989    0.836089 Biso 1.000000  O     
 O17    1.0    0.332842    0.953252    0.519841 Biso 1.000000  O     
 O18    1.0    0.667158    0.953252    0.019841 Biso 1.000000  O     
 O19    1.0    0.832842    0.453252    0.019841 Biso 1.000000  O     
 O20    1.0    0.167158    0.453252    0.519841 Biso 1.000000  O     
 O21    1.0    0.358299    0.344402    0.756147 Biso 1.000000  O     
 O22    1.0    0.641701    0.344402    0.256147 Biso 1.000000  O     
 O23    1.0    0.858299    0.844402    0.256147 Biso 1.000000  O     
 O24    1.0    0.141701    0.844402    0.756147 Biso 1.000000  O     
 C1     1.0    0.221390    0.747719    0.072177 Biso 1.000000  C     
 C2     1.0    0.778610    0.840547    0.826447 Biso 1.000000  C     
 C3     1.0    0.721390    0.340547    0.826447 Biso 1.000000  C     
 C4     1.0    0.278610    0.247719    0.072177 Biso 1.000000  C     
 C5     1.0    0.285350    0.252888    0.751996 Biso 1.000000  C     
 C6     1.0    0.714650    0.252888    0.251996 Biso 1.000000  C     
 C7     1.0    0.785350    0.752888    0.251996 Biso 1.000000  C     
 C8     1.0    0.214650    0.752888    0.751996 Biso 1.000000  C     
 C9     1.0    0.025244    0.028568    0.029838 Biso 1.000000  C     
 C10    1.0    0.974756    0.028568    0.529838 Biso 1.000000  C     
 C11    1.0    0.525244    0.528568    0.529838 Biso 1.000000  C     
 C12    1.0    0.474756    0.528568    0.029838 Biso 1.000000  C     
 C13    1.0    0.475764    0.971008    0.474618 Biso 1.000000  C     
 C14    1.0    0.524236    0.971008    0.974618 Biso 1.000000  C     
 C15    1.0    0.975764    0.471008    0.974618 Biso 1.000000  C     
 C16    1.0    0.024236    0.471008    0.474618 Biso 1.000000  C     
 C17    1.0    0.262990    0.819482    0.348686 Biso 1.000000  C     
 C18    1.0    0.737010    0.639295    0.807353 Biso 1.000000  C     
 C19    1.0    0.762990    0.139295    0.807353 Biso 1.000000  C     
 C20    1.0    0.237010    0.319482    0.348686 Biso 1.000000  C     
 H1     1.0    0.351750    0.740580    0.049426 Biso 1.000000  H     
 H2     1.0    0.648250    0.857350    0.826344 Biso 1.000000  H     
 H3     1.0    0.851750    0.357350    0.826344 Biso 1.000000  H     
 H4     1.0    0.148250    0.240580    0.049426 Biso 1.000000  H     
 H5     1.0    0.154430    0.685460   -0.003214 Biso 1.000000  H     
 H6     1.0    0.845570    0.903841    0.773795 Biso 1.000000  H     
 H7     1.0    0.654430    0.403841    0.773795 Biso 1.000000  H     
 H8     1.0    0.345570    0.185460   -0.003214 Biso 1.000000  H     
 H9     1.0    0.180790    0.829851    0.051874 Biso 1.000000  H     
 H10    1.0    0.819210    0.838084    0.946297 Biso 1.000000  H     
 H11    1.0    0.680790    0.338084    0.946297 Biso 1.000000  H     
 H12    1.0    0.319210    0.329851    0.051874 Biso 1.000000  H     
 H13    1.0    0.151010    0.251952    0.751736 Biso 1.000000  H     
 H14    1.0    0.848990    0.251952    0.251736 Biso 1.000000  H     
 H15    1.0    0.651010    0.751952    0.251736 Biso 1.000000  H     
 H16    1.0    0.348990    0.751952    0.751736 Biso 1.000000  H     
 H17    1.0    0.447843    0.480016    0.447034 Biso 1.000000  H     
 H18    1.0    0.552157    0.480016    0.947034 Biso 1.000000  H     
 H19    1.0    0.947843   -0.019984    0.947034 Biso 1.000000  H     
 H20    1.0    0.052157   -0.019984    0.447034 Biso 1.000000  H     
 H21    1.0    0.061673    0.505416    0.062014 Biso 1.000000  H     
 H22    1.0    0.938327    0.505416    0.562014 Biso 1.000000  H     
 H23    1.0    0.561673    0.005416    0.562014 Biso 1.000000  H     
 H24    1.0    0.438327    0.005416    0.062014 Biso 1.000000  H     
 H25    1.0    0.241900    0.654281    0.254489 Biso 1.000000  H     
 H26    1.0    0.758100    0.735619    0.623104 Biso 1.000000  H     
 H27    1.0    0.741900    0.235619    0.623104 Biso 1.000000  H     
 H28    1.0    0.258100    0.154281    0.254489 Biso 1.000000  H     
 H29    1.0    0.065480    0.728924    0.258851 Biso 1.000000  H     
 H30    1.0    0.934520    0.717944    0.722428 Biso 1.000000  H     
 H31    1.0    0.565480    0.217944    0.722428 Biso 1.000000  H     
 H32    1.0    0.434520    0.228924    0.258851 Biso 1.000000  H     
 H33    1.0    0.235020    0.802941    0.467392 Biso 1.000000  H     
 H34    1.0    0.764980    0.562237    0.734988 Biso 1.000000  H     
 H35    1.0    0.735020    0.062237    0.734988 Biso 1.000000  H     
 H36    1.0    0.264980    0.302941    0.467392 Biso 1.000000  H     
 H37    1.0    0.394570    0.820042    0.332498 Biso 1.000000  H     
 H38    1.0    0.605430    0.650138    0.814924 Biso 1.000000  H     
 H39    1.0    0.894570    0.150138    0.814924 Biso 1.000000  H     
 H40    1.0    0.105430    0.320042    0.332498 Biso 1.000000  H     
 H41    1.0    0.212160    0.898393    0.324857 Biso 1.000000  H     
 H42    1.0    0.787840    0.639853    0.924322 Biso 1.000000  H     
 H43    1.0    0.712160    0.139853    0.924322 Biso 1.000000  H     
 H44    1.0    0.287840    0.398393    0.324857 Biso 1.000000  H     
 N1     1.0    0.191440    0.731286    0.237069 Biso 1.000000  N     
 N2     1.0    0.808560    0.732217    0.734793 Biso 1.000000  N     
 N3     1.0    0.691440    0.232217    0.734793 Biso 1.000000  N     
 N4     1.0    0.308560    0.231286    0.237069 Biso 1.000000  N     
