_cell_length_a                         8.242522
_cell_length_b                         12.229819
_cell_length_c                         8.641561
_cell_angle_alpha                      96.702248
_cell_angle_beta                       90.000000
_cell_angle_gamma                      90.000000
_space_group_IT_number                 1
 loop_
 _space_group_symop_operation_xyz 
 'x, y, z' 
 loop_ 
 _atom_site_label 
 _atom_site_occupancy 
 _atom_site_fract_x 
 _atom_site_fract_y
 _atom_site_fract_z
 _atom_site_adp_type
 _atom_site_U_iso_or_equiv
 _atom_site_type_symbol
 Zn1    1.0    0.252528    1.003648    0.752392 Biso 1.000000  Zn    
 Zn2    1.0    0.747472    1.003648    0.252392 Biso 1.000000  Zn    
 Zn3    1.0    0.752528    0.503648    0.252392 Biso 1.000000  Zn    
 Zn4    1.0    0.247472    0.503648    0.752392 Biso 1.000000  Zn    
 O1     1.0    0.360357    0.164334    0.750219 Biso 1.000000  O     
 O2     1.0    0.639643    0.164334    0.250219 Biso 1.000000  O     
 O3     1.0    0.860357    0.664334    0.250219 Biso 1.000000  O     
 O4     1.0    0.139643    0.664334    0.750219 Biso 1.000000  O     
 O5     1.0    0.469236    0.560933    0.665093 Biso 1.000000  O     
 O6     1.0    0.530764    0.560933    0.165093 Biso 1.000000  O     
 O7     1.0    0.969236    0.060933    0.165093 Biso 1.000000  O     
 O8     1.0    0.030764    0.060933    0.665093 Biso 1.000000  O     
 O9     1.0    0.164554    0.056624    0.984617 Biso 1.000000  O     
 O10    1.0    0.835446    0.056624    0.484617 Biso 1.000000  O     
 O11    1.0    0.664554    0.556624    0.484617 Biso 1.000000  O     
 O12    1.0    0.335446    0.556624    0.984617 Biso 1.000000  O     
 O13    1.0    0.022716    0.454963    0.836483 Biso 1.000000  O     
 O14    1.0    0.977284    0.454963    0.336483 Biso 1.000000  O     
 O15    1.0    0.522716    0.954963    0.336483 Biso 1.000000  O     
 O16    1.0    0.477284    0.954963    0.836483 Biso 1.000000  O     
 O17    1.0    0.331974    0.956544    0.521327 Biso 1.000000  O     
 O18    1.0    0.668026    0.956544    0.021327 Biso 1.000000  O     
 O19    1.0    0.831974    0.456544    0.021327 Biso 1.000000  O     
 O20    1.0    0.168026    0.456544    0.521327 Biso 1.000000  O     
 O21    1.0    0.357613    0.347314    0.758269 Biso 1.000000  O     
 O22    1.0    0.642387    0.347314    0.258269 Biso 1.000000  O     
 O23    1.0    0.857613    0.847314    0.258269 Biso 1.000000  O     
 O24    1.0    0.142387    0.847314    0.758269 Biso 1.000000  O     
 C1     1.0    0.221390    0.796950    0.114271 Biso 1.000000  C     
 C2     1.0    0.778610    0.832407    0.711393 Biso 1.000000  C     
 C3     1.0    0.721390    0.332407    0.711393 Biso 1.000000  C     
 C4     1.0    0.278610    0.296950    0.114271 Biso 1.000000  C     
 C5     1.0    0.285350    0.255776    0.753992 Biso 1.000000  C     
 C6     1.0    0.714650    0.255776    0.253992 Biso 1.000000  C     
 C7     1.0    0.785350    0.755776    0.253992 Biso 1.000000  C     
 C8     1.0    0.214650    0.755776    0.753992 Biso 1.000000  C     
 C9     1.0    0.025748    0.028356    0.032066 Biso 1.000000  C     
 C10    1.0    0.974252    0.028356    0.532066 Biso 1.000000  C     
 C11    1.0    0.525748    0.528356    0.532066 Biso 1.000000  C     
 C12    1.0    0.474252    0.528356    0.032066 Biso 1.000000  C     
 C13    1.0    0.476268    0.970796    0.476846 Biso 1.000000  C     
 C14    1.0    0.523732    0.970796    0.976846 Biso 1.000000  C     
 C15    1.0    0.976268    0.470796    0.976846 Biso 1.000000  C     
 C16    1.0    0.023732    0.470796    0.476846 Biso 1.000000  C     
 C17    1.0    0.262990    0.744332    0.378979 Biso 1.000000  C     
 C18    1.0    0.737010    0.675507    0.863191 Biso 1.000000  C     
 C19    1.0    0.762990    0.175507    0.863191 Biso 1.000000  C     
 C20    1.0    0.237010    0.244332    0.378979 Biso 1.000000  C     
 H1     1.0    0.351750    0.800195    0.091457 Biso 1.000000  H     
 H2     1.0    0.648250    0.844797    0.697230 Biso 1.000000  H     
 H3     1.0    0.851750    0.344797    0.697230 Biso 1.000000  H     
 H4     1.0    0.148250    0.300195    0.091457 Biso 1.000000  H     
 H5     1.0    0.154430    0.773808    0.006339 Biso 1.000000  H     
 H6     1.0    0.845570    0.857222    0.612147 Biso 1.000000  H     
 H7     1.0    0.654430    0.357222    0.612147 Biso 1.000000  H     
 H8     1.0    0.345570    0.273808    0.006339 Biso 1.000000  H     
 H9     1.0    0.180790    0.877559    0.168040 Biso 1.000000  H     
 H10    1.0    0.819210    0.880704    0.818696 Biso 1.000000  H     
 H11    1.0    0.680790    0.380704    0.818696 Biso 1.000000  H     
 H12    1.0    0.319210    0.377559    0.168040 Biso 1.000000  H     
 H13    1.0    0.151010    0.253904    0.753472 Biso 1.000000  H     
 H14    1.0    0.848990    0.253904    0.253472 Biso 1.000000  H     
 H15    1.0    0.651010    0.753904    0.253472 Biso 1.000000  H     
 H16    1.0    0.348990    0.753904    0.753472 Biso 1.000000  H     
 H17    1.0    0.452601    0.472732    0.451558 Biso 1.000000  H     
 H18    1.0    0.547399    0.472732    0.951558 Biso 1.000000  H     
 H19    1.0    0.952601   -0.027268    0.951558 Biso 1.000000  H     
 H20    1.0    0.047399   -0.027268    0.451558 Biso 1.000000  H     
 H21    1.0    0.066431    0.498132    0.066538 Biso 1.000000  H     
 H22    1.0    0.933569    0.498132    0.566538 Biso 1.000000  H     
 H23    1.0    0.566431   -0.001868    0.566538 Biso 1.000000  H     
 H24    1.0    0.433569   -0.001868    0.066538 Biso 1.000000  H     
 H25    1.0    0.241900    0.638663    0.170910 Biso 1.000000  H     
 H26    1.0    0.758100    0.669731    0.620726 Biso 1.000000  H     
 H27    1.0    0.741900    0.169731    0.620726 Biso 1.000000  H     
 H28    1.0    0.258100    0.138663    0.170910 Biso 1.000000  H     
 H29    1.0    0.065480    0.702382    0.236657 Biso 1.000000  H     
 H30    1.0    0.934520    0.698188    0.722745 Biso 1.000000  H     
 H31    1.0    0.565480    0.198188    0.722745 Biso 1.000000  H     
 H32    1.0    0.434520    0.202382    0.236657 Biso 1.000000  H     
 H33    1.0    0.235020    0.680167    0.452961 Biso 1.000000  H     
 H34    1.0    0.764980    0.588226    0.864191 Biso 1.000000  H     
 H35    1.0    0.735020    0.088226    0.864191 Biso 1.000000  H     
 H36    1.0    0.264980    0.180167    0.452961 Biso 1.000000  H     
 H37    1.0    0.394570    0.751593    0.367470 Biso 1.000000  H     
 H38    1.0    0.605430    0.686696    0.860757 Biso 1.000000  H     
 H39    1.0    0.894570    0.186696    0.860757 Biso 1.000000  H     
 H40    1.0    0.105430    0.251593    0.367470 Biso 1.000000  H     
 H41    1.0    0.212160    0.823588    0.427441 Biso 1.000000  H     
 H42    1.0    0.787840    0.724834    0.965433 Biso 1.000000  H     
 H43    1.0    0.712160    0.224834    0.965433 Biso 1.000000  H     
 H44    1.0    0.287840    0.323588    0.427441 Biso 1.000000  H     
 N1     1.0    0.191440    0.713565    0.222518 Biso 1.000000  N     
 N2     1.0    0.808560    0.713921    0.721649 Biso 1.000000  N     
 N3     1.0    0.691440    0.213921    0.721649 Biso 1.000000  N     
 N4     1.0    0.308560    0.213565    0.222518 Biso 1.000000  N     
