_cell_length_a                         8.242522
_cell_length_b                         12.229819
_cell_length_c                         8.641561
_cell_angle_alpha                      96.702248
_cell_angle_beta                       90.000000
_cell_angle_gamma                      90.000000
_space_group_IT_number                 1
 loop_
 _space_group_symop_operation_xyz 
 'x, y, z' 
 loop_ 
 _atom_site_label 
 _atom_site_occupancy 
 _atom_site_fract_x 
 _atom_site_fract_y
 _atom_site_fract_z
 _atom_site_adp_type
 _atom_site_U_iso_or_equiv
 _atom_site_type_symbol
 Zn1    1.0    0.248736    0.998176    0.748804 Biso 1.000000  Zn    
 Zn2    1.0    0.751264    0.998176    0.248804 Biso 1.000000  Zn    
 Zn3    1.0    0.748736    0.498176    0.248804 Biso 1.000000  Zn    
 Zn4    1.0    0.251264    0.498176    0.748804 Biso 1.000000  Zn    
 O1     1.0    0.358299    0.155598    0.743853 Biso 1.000000  O     
 O2     1.0    0.641701    0.155598    0.243853 Biso 1.000000  O     
 O3     1.0    0.858299    0.655598    0.243853 Biso 1.000000  O     
 O4     1.0    0.141701    0.655598    0.743853 Biso 1.000000  O     
 O5     1.0    0.475272    0.549011    0.663911 Biso 1.000000  O     
 O6     1.0    0.524728    0.549011    0.163911 Biso 1.000000  O     
 O7     1.0    0.975272    0.049011    0.163911 Biso 1.000000  O     
 O8     1.0    0.024728    0.049011    0.663911 Biso 1.000000  O     
 O9     1.0    0.167158    0.046748    0.980159 Biso 1.000000  O     
 O10    1.0    0.832842    0.046748    0.480159 Biso 1.000000  O     
 O11    1.0    0.667158    0.546748    0.480159 Biso 1.000000  O     
 O12    1.0    0.332842    0.546748    0.980159 Biso 1.000000  O     
 O13    1.0    0.028752    0.443041    0.835301 Biso 1.000000  O     
 O14    1.0    0.971248    0.443041    0.335301 Biso 1.000000  O     
 O15    1.0    0.528752    0.943041    0.335301 Biso 1.000000  O     
 O16    1.0    0.471248    0.943041    0.835301 Biso 1.000000  O     
 O17    1.0    0.334578    0.946668    0.516869 Biso 1.000000  O     
 O18    1.0    0.665422    0.946668    0.016869 Biso 1.000000  O     
 O19    1.0    0.834578    0.446668    0.016869 Biso 1.000000  O     
 O20    1.0    0.165422    0.446668    0.516869 Biso 1.000000  O     
 O21    1.0    0.359671    0.338578    0.751903 Biso 1.000000  O     
 O22    1.0    0.640329    0.338578    0.251903 Biso 1.000000  O     
 O23    1.0    0.859671    0.838578    0.251903 Biso 1.000000  O     
 O24    1.0    0.140329    0.838578    0.751903 Biso 1.000000  O     
 C1     1.0    0.221390    0.659453    0.173553 Biso 1.000000  C     
 C2     1.0    0.778610    0.752281    0.927823 Biso 1.000000  C     
 C3     1.0    0.721390    0.252281    0.927823 Biso 1.000000  C     
 C4     1.0    0.278610    0.159453    0.173553 Biso 1.000000  C     
 C5     1.0    0.285350    0.247112    0.748004 Biso 1.000000  C     
 C6     1.0    0.714650    0.247112    0.248004 Biso 1.000000  C     
 C7     1.0    0.785350    0.747112    0.248004 Biso 1.000000  C     
 C8     1.0    0.214650    0.747112    0.748004 Biso 1.000000  C     
 C9     1.0    0.024236    0.028992    0.025382 Biso 1.000000  C     
 C10    1.0    0.975764    0.028992    0.525382 Biso 1.000000  C     
 C11    1.0    0.524236    0.528992    0.525382 Biso 1.000000  C     
 C12    1.0    0.475764    0.528992    0.025382 Biso 1.000000  C     
 C13    1.0    0.474756    0.971432    0.470162 Biso 1.000000  C     
 C14    1.0    0.525244    0.971432    0.970162 Biso 1.000000  C     
 C15    1.0    0.974756    0.471432    0.970162 Biso 1.000000  C     
 C16    1.0    0.025244    0.471432    0.470162 Biso 1.000000  C     
 C17    1.0    0.262990    0.860705    0.192647 Biso 1.000000  C     
 C18    1.0    0.737010    0.680518    0.651314 Biso 1.000000  C     
 C19    1.0    0.762990    0.180518    0.651314 Biso 1.000000  C     
 C20    1.0    0.237010    0.360705    0.192647 Biso 1.000000  C     
 H1     1.0    0.351750    0.642650    0.173656 Biso 1.000000  H     
 H2     1.0    0.648250    0.759420    0.950574 Biso 1.000000  H     
 H3     1.0    0.851750    0.259420    0.950574 Biso 1.000000  H     
 H4     1.0    0.148250    0.142650    0.173656 Biso 1.000000  H     
 H5     1.0    0.154430    0.596159    0.226205 Biso 1.000000  H     
 H6     1.0    0.845570    0.814540    1.003214 Biso 1.000000  H     
 H7     1.0    0.654430    0.314540    1.003214 Biso 1.000000  H     
 H8     1.0    0.345570    0.096159    0.226205 Biso 1.000000  H     
 H9     1.0    0.180790    0.661916    0.053703 Biso 1.000000  H     
 H10    1.0    0.819210    0.670149    0.948126 Biso 1.000000  H     
 H11    1.0    0.680790    0.170149    0.948126 Biso 1.000000  H     
 H12    1.0    0.319210    0.161916    0.053703 Biso 1.000000  H     
 H13    1.0    0.151010    0.248048    0.748264 Biso 1.000000  H     
 H14    1.0    0.848990    0.248048    0.248264 Biso 1.000000  H     
 H15    1.0    0.651010    0.748048    0.248264 Biso 1.000000  H     
 H16    1.0    0.348990    0.748048    0.748264 Biso 1.000000  H     
 H17    1.0    0.438327    0.494584    0.437986 Biso 1.000000  H     
 H18    1.0    0.561673    0.494584    0.937986 Biso 1.000000  H     
 H19    1.0    0.938327   -0.005416    0.937986 Biso 1.000000  H     
 H20    1.0    0.061673   -0.005416    0.437986 Biso 1.000000  H     
 H21    1.0    0.052157    0.519984    0.052966 Biso 1.000000  H     
 H22    1.0    0.947843    0.519984    0.552966 Biso 1.000000  H     
 H23    1.0    0.552157    0.019984    0.552966 Biso 1.000000  H     
 H24    1.0    0.447843    0.019984    0.052966 Biso 1.000000  H     
 H25    1.0    0.241900    0.764381    0.376896 Biso 1.000000  H     
 H26    1.0    0.758100    0.845719    0.745511 Biso 1.000000  H     
 H27    1.0    0.741900    0.345719    0.745511 Biso 1.000000  H     
 H28    1.0    0.258100    0.264381    0.376896 Biso 1.000000  H     
 H29    1.0    0.065480    0.782056    0.277572 Biso 1.000000  H     
 H30    1.0    0.934520    0.771076    0.741149 Biso 1.000000  H     
 H31    1.0    0.565480    0.271076    0.741149 Biso 1.000000  H     
 H32    1.0    0.434520    0.282056    0.277572 Biso 1.000000  H     
 H33    1.0    0.235020    0.937763    0.265012 Biso 1.000000  H     
 H34    1.0    0.764980    0.697059    0.532608 Biso 1.000000  H     
 H35    1.0    0.735020    0.197059    0.532608 Biso 1.000000  H     
 H36    1.0    0.264980    0.437763    0.265012 Biso 1.000000  H     
 H37    1.0    0.394570    0.849862    0.185076 Biso 1.000000  H     
 H38    1.0    0.605430    0.679958    0.667502 Biso 1.000000  H     
 H39    1.0    0.894570    0.179958    0.667502 Biso 1.000000  H     
 H40    1.0    0.105430    0.349862    0.185076 Biso 1.000000  H     
 H41    1.0    0.212160    0.860147    0.075678 Biso 1.000000  H     
 H42    1.0    0.787840    0.601607    0.675143 Biso 1.000000  H     
 H43    1.0    0.712160    0.101607    0.675143 Biso 1.000000  H     
 H44    1.0    0.287840    0.360147    0.075678 Biso 1.000000  H     
 N1     1.0    0.191440    0.767783    0.265207 Biso 1.000000  N     
 N2     1.0    0.808560    0.768714    0.762931 Biso 1.000000  N     
 N3     1.0    0.691440    0.268714    0.762931 Biso 1.000000  N     
 N4     1.0    0.308560    0.267783    0.265207 Biso 1.000000  N     
