_cell_length_a                         8.242522
_cell_length_b                         12.229819
_cell_length_c                         8.641561
_cell_angle_alpha                      96.702248
_cell_angle_beta                       90.000000
_cell_angle_gamma                      90.000000
_space_group_IT_number                 1
 loop_
 _space_group_symop_operation_xyz 
 'x, y, z' 
 loop_ 
 _atom_site_label 
 _atom_site_occupancy 
 _atom_site_fract_x 
 _atom_site_fract_y
 _atom_site_fract_z
 _atom_site_adp_type
 _atom_site_U_iso_or_equiv
 _atom_site_type_symbol
 Zn1    1.0    0.250632    1.000912    0.750598 Biso 1.000000  Zn    
 Zn2    1.0    0.749368    1.000912    0.250598 Biso 1.000000  Zn    
 Zn3    1.0    0.750632    0.500912    0.250598 Biso 1.000000  Zn    
 Zn4    1.0    0.249368    0.500912    0.750598 Biso 1.000000  Zn    
 O1     1.0    0.359328    0.159966    0.747036 Biso 1.000000  O     
 O2     1.0    0.640672    0.159966    0.247036 Biso 1.000000  O     
 O3     1.0    0.859328    0.659966    0.247036 Biso 1.000000  O     
 O4     1.0    0.140672    0.659966    0.747036 Biso 1.000000  O     
 O5     1.0    0.472254    0.554972    0.664502 Biso 1.000000  O     
 O6     1.0    0.527746    0.554972    0.164502 Biso 1.000000  O     
 O7     1.0    0.972254    0.054972    0.164502 Biso 1.000000  O     
 O8     1.0    0.027746    0.054972    0.664502 Biso 1.000000  O     
 O9     1.0    0.165856    0.051686    0.982388 Biso 1.000000  O     
 O10    1.0    0.834144    0.051686    0.482388 Biso 1.000000  O     
 O11    1.0    0.665856    0.551686    0.482388 Biso 1.000000  O     
 O12    1.0    0.334144    0.551686    0.982388 Biso 1.000000  O     
 O13    1.0    0.025734    0.449002    0.835892 Biso 1.000000  O     
 O14    1.0    0.974266    0.449002    0.335892 Biso 1.000000  O     
 O15    1.0    0.525734    0.949002    0.335892 Biso 1.000000  O     
 O16    1.0    0.474266    0.949002    0.835892 Biso 1.000000  O     
 O17    1.0    0.333276    0.951606    0.519098 Biso 1.000000  O     
 O18    1.0    0.666724    0.951606    0.019098 Biso 1.000000  O     
 O19    1.0    0.833276    0.451606    0.019098 Biso 1.000000  O     
 O20    1.0    0.166724    0.451606    0.519098 Biso 1.000000  O     
 O21    1.0    0.358642    0.342946    0.755086 Biso 1.000000  O     
 O22    1.0    0.641358    0.342946    0.255086 Biso 1.000000  O     
 O23    1.0    0.858642    0.842946    0.255086 Biso 1.000000  O     
 O24    1.0    0.141358    0.842946    0.755086 Biso 1.000000  O     
 C1     1.0    0.221390    0.719092    0.074243 Biso 1.000000  C     
 C2     1.0    0.778610    0.828219    0.873155 Biso 1.000000  C     
 C3     1.0    0.721390    0.328219    0.873155 Biso 1.000000  C     
 C4     1.0    0.278610    0.219092    0.074243 Biso 1.000000  C     
 C5     1.0    0.285350    0.251444    0.750998 Biso 1.000000  C     
 C6     1.0    0.714650    0.251444    0.250998 Biso 1.000000  C     
 C7     1.0    0.785350    0.751444    0.250998 Biso 1.000000  C     
 C8     1.0    0.214650    0.751444    0.750998 Biso 1.000000  C     
 C9     1.0    0.024992    0.028674    0.028724 Biso 1.000000  C     
 C10    1.0    0.975008    0.028674    0.528724 Biso 1.000000  C     
 C11    1.0    0.524992    0.528674    0.528724 Biso 1.000000  C     
 C12    1.0    0.475008    0.528674    0.028724 Biso 1.000000  C     
 C13    1.0    0.475512    0.971114    0.473504 Biso 1.000000  C     
 C14    1.0    0.524488    0.971114    0.973504 Biso 1.000000  C     
 C15    1.0    0.975512    0.471114    0.973504 Biso 1.000000  C     
 C16    1.0    0.024488    0.471114    0.473504 Biso 1.000000  C     
 C17    1.0    0.262990    0.845528    0.315659 Biso 1.000000  C     
 C18    1.0    0.737010    0.633706    0.767069 Biso 1.000000  C     
 C19    1.0    0.762990    0.133706    0.767069 Biso 1.000000  C     
 C20    1.0    0.237010    0.345528    0.315659 Biso 1.000000  C     
 H1     1.0    0.351750    0.707560    0.054923 Biso 1.000000  H     
 H2     1.0    0.648250    0.844831    0.880460 Biso 1.000000  H     
 H3     1.0    0.851750    0.344831    0.880460 Biso 1.000000  H     
 H4     1.0    0.148250    0.207560    0.054923 Biso 1.000000  H     
 H5     1.0    0.154430    0.645567    0.027219 Biso 1.000000  H     
 H6     1.0    0.845570    0.902288    0.852862 Biso 1.000000  H     
 H7     1.0    0.654430    0.402288    0.852862 Biso 1.000000  H     
 H8     1.0    0.345570    0.145567    0.027219 Biso 1.000000  H     
 H9     1.0    0.180790    0.789758    0.018031 Biso 1.000000  H     
 H10    1.0    0.819210    0.799437    0.981702 Biso 1.000000  H     
 H11    1.0    0.680790    0.299437    0.981702 Biso 1.000000  H     
 H12    1.0    0.319210    0.289758    0.018031 Biso 1.000000  H     
 H13    1.0    0.151010    0.250976    0.750868 Biso 1.000000  H     
 H14    1.0    0.848990    0.250976    0.250868 Biso 1.000000  H     
 H15    1.0    0.651010    0.750976    0.250868 Biso 1.000000  H     
 H16    1.0    0.348990    0.750976    0.750868 Biso 1.000000  H     
 H17    1.0    0.445464    0.483658    0.444772 Biso 1.000000  H     
 H18    1.0    0.554536    0.483658    0.944772 Biso 1.000000  H     
 H19    1.0    0.945464   -0.016342    0.944772 Biso 1.000000  H     
 H20    1.0    0.054536   -0.016342    0.444772 Biso 1.000000  H     
 H21    1.0    0.059294    0.509058    0.059752 Biso 1.000000  H     
 H22    1.0    0.940706    0.509058    0.559752 Biso 1.000000  H     
 H23    1.0    0.559294    0.009058    0.559752 Biso 1.000000  H     
 H24    1.0    0.440706    0.009058    0.059752 Biso 1.000000  H     
 H25    1.0    0.241900    0.673702    0.295397 Biso 1.000000  H     
 H26    1.0    0.758100    0.769322    0.640945 Biso 1.000000  H     
 H27    1.0    0.741900    0.269322    0.640945 Biso 1.000000  H     
 H28    1.0    0.258100    0.173702    0.295397 Biso 1.000000  H     
 H29    1.0    0.065480    0.742941    0.266835 Biso 1.000000  H     
 H30    1.0    0.934520    0.730033    0.724017 Biso 1.000000  H     
 H31    1.0    0.565480    0.230033    0.724017 Biso 1.000000  H     
 H32    1.0    0.434520    0.242941    0.266835 Biso 1.000000  H     
 H33    1.0    0.235020    0.856496    0.440150 Biso 1.000000  H     
 H34    1.0    0.764980    0.573531    0.666942 Biso 1.000000  H     
 H35    1.0    0.735020    0.073531    0.666942 Biso 1.000000  H     
 H36    1.0    0.264980    0.356496    0.440150 Biso 1.000000  H     
 H37    1.0    0.394570    0.842482    0.299429 Biso 1.000000  H     
 H38    1.0    0.605430    0.642748    0.778769 Biso 1.000000  H     
 H39    1.0    0.894570    0.142748    0.778769 Biso 1.000000  H     
 H40    1.0    0.105430    0.342482    0.299429 Biso 1.000000  H     
 H41    1.0    0.212160    0.912473    0.257384 Biso 1.000000  H     
 H42    1.0    0.787840    0.608541    0.874311 Biso 1.000000  H     
 H43    1.0    0.712160    0.108541    0.874311 Biso 1.000000  H     
 H44    1.0    0.287840    0.412473    0.257384 Biso 1.000000  H     
 N1     1.0    0.191440    0.740312    0.244288 Biso 1.000000  N     
 N2     1.0    0.808560    0.741407    0.741613 Biso 1.000000  N     
 N3     1.0    0.691440    0.241407    0.741613 Biso 1.000000  N     
 N4     1.0    0.308560    0.240312    0.244288 Biso 1.000000  N     
