_cell_length_a                         8.242522
_cell_length_b                         12.229819
_cell_length_c                         8.641561
_cell_angle_alpha                      96.702248
_cell_angle_beta                       90.000000
_cell_angle_gamma                      90.000000
_space_group_IT_number                 1
 loop_
 _space_group_symop_operation_xyz 
 'x, y, z' 
 loop_ 
 _atom_site_label 
 _atom_site_occupancy 
 _atom_site_fract_x 
 _atom_site_fract_y
 _atom_site_fract_z
 _atom_site_adp_type
 _atom_site_U_iso_or_equiv
 _atom_site_type_symbol
 Zn1    1.0    0.253160    1.004560    0.752990 Biso 1.000000  Zn    
 Zn2    1.0    0.746840    1.004560    0.252990 Biso 1.000000  Zn    
 Zn3    1.0    0.753160    0.504560    0.252990 Biso 1.000000  Zn    
 Zn4    1.0    0.246840    0.504560    0.752990 Biso 1.000000  Zn    
 O1     1.0    0.360700    0.165790    0.751280 Biso 1.000000  O     
 O2     1.0    0.639300    0.165790    0.251280 Biso 1.000000  O     
 O3     1.0    0.860700    0.665790    0.251280 Biso 1.000000  O     
 O4     1.0    0.139300    0.665790    0.751280 Biso 1.000000  O     
 O5     1.0    0.468230    0.562920    0.665290 Biso 1.000000  O     
 O6     1.0    0.531770    0.562920    0.165290 Biso 1.000000  O     
 O7     1.0    0.968230    0.062920    0.165290 Biso 1.000000  O     
 O8     1.0    0.031770    0.062920    0.665290 Biso 1.000000  O     
 O9     1.0    0.164120    0.058270    0.985360 Biso 1.000000  O     
 O10    1.0    0.835880    0.058270    0.485360 Biso 1.000000  O     
 O11    1.0    0.664120    0.558270    0.485360 Biso 1.000000  O     
 O12    1.0    0.335880    0.558270    0.985360 Biso 1.000000  O     
 O13    1.0    0.021710    0.456950    0.836680 Biso 1.000000  O     
 O14    1.0    0.978290    0.456950    0.336680 Biso 1.000000  O     
 O15    1.0    0.521710    0.956950    0.336680 Biso 1.000000  O     
 O16    1.0    0.478290    0.956950    0.836680 Biso 1.000000  O     
 O17    1.0    0.331540    0.958190    0.522070 Biso 1.000000  O     
 O18    1.0    0.668460    0.958190    0.022070 Biso 1.000000  O     
 O19    1.0    0.831540    0.458190    0.022070 Biso 1.000000  O     
 O20    1.0    0.168460    0.458190    0.522070 Biso 1.000000  O     
 O21    1.0    0.357270    0.348770    0.759330 Biso 1.000000  O     
 O22    1.0    0.642730    0.348770    0.259330 Biso 1.000000  O     
 O23    1.0    0.857270    0.848770    0.259330 Biso 1.000000  O     
 O24    1.0    0.142730    0.848770    0.759330 Biso 1.000000  O     
 C1     1.0    0.221390    0.811010    0.152990 Biso 1.000000  C     
 C2     1.0    0.778610    0.811010    0.652990 Biso 1.000000  C     
 C3     1.0    0.721390    0.311010    0.652990 Biso 1.000000  C     
 C4     1.0    0.278610    0.311010    0.152990 Biso 1.000000  C     
 C5     1.0    0.285350    0.257220    0.754990 Biso 1.000000  C     
 C6     1.0    0.714650    0.257220    0.254990 Biso 1.000000  C     
 C7     1.0    0.785350    0.757220    0.254990 Biso 1.000000  C     
 C8     1.0    0.214650    0.757220    0.754990 Biso 1.000000  C     
 C9     1.0    0.026000    0.028250    0.033180 Biso 1.000000  C     
 C10    1.0    0.974000    0.028250    0.533180 Biso 1.000000  C     
 C11    1.0    0.526000    0.528250    0.533180 Biso 1.000000  C     
 C12    1.0    0.474000    0.528250    0.033180 Biso 1.000000  C     
 C13    1.0    0.476520    0.970690    0.477960 Biso 1.000000  C     
 C14    1.0    0.523480    0.970690    0.977960 Biso 1.000000  C     
 C15    1.0    0.976520    0.470690    0.977960 Biso 1.000000  C     
 C16    1.0    0.023480    0.470690    0.477960 Biso 1.000000  C     
 C17    1.0    0.262990    0.700860    0.371960 Biso 1.000000  C     
 C18    1.0    0.737010    0.700860    0.871960 Biso 1.000000  C     
 C19    1.0    0.762990    0.200860    0.871960 Biso 1.000000  C     
 C20    1.0    0.237010    0.200860    0.371960 Biso 1.000000  C     
 H1     1.0    0.351750    0.819230    0.133550 Biso 1.000000  H     
 H2     1.0    0.648250    0.819230    0.633550 Biso 1.000000  H     
 H3     1.0    0.851750    0.319230    0.633550 Biso 1.000000  H     
 H4     1.0    0.148250    0.319230    0.133550 Biso 1.000000  H     
 H5     1.0    0.154430    0.811890    0.044070 Biso 1.000000  H     
 H6     1.0    0.845570    0.811890    0.544070 Biso 1.000000  H     
 H7     1.0    0.654430    0.311890    0.544070 Biso 1.000000  H     
 H8     1.0    0.345570    0.311890    0.044070 Biso 1.000000  H     
 H9     1.0    0.180790    0.878780    0.237670 Biso 1.000000  H     
 H10    1.0    0.819210    0.878780    0.737670 Biso 1.000000  H     
 H11    1.0    0.680790    0.378780    0.737670 Biso 1.000000  H     
 H12    1.0    0.319210    0.378780    0.237670 Biso 1.000000  H     
 H13    1.0    0.151010    0.254880    0.754340 Biso 1.000000  H     
 H14    1.0    0.848990    0.254880    0.254340 Biso 1.000000  H     
 H15    1.0    0.651010    0.754880    0.254340 Biso 1.000000  H     
 H16    1.0    0.348990    0.754880    0.754340 Biso 1.000000  H     
 H17    1.0    0.454980    0.469090    0.453820 Biso 1.000000  H     
 H18    1.0    0.545020    0.469090    0.953820 Biso 1.000000  H     
 H19    1.0    0.954980   -0.030910    0.953820 Biso 1.000000  H     
 H20    1.0    0.045020   -0.030910    0.453820 Biso 1.000000  H     
 H21    1.0    0.068810    0.494490    0.068800 Biso 1.000000  H     
 H22    1.0    0.931190    0.494490    0.568800 Biso 1.000000  H     
 H23    1.0    0.568810   -0.005510    0.568800 Biso 1.000000  H     
 H24    1.0    0.431190   -0.005510    0.068800 Biso 1.000000  H     
 H25    1.0    0.241900    0.642270    0.135100 Biso 1.000000  H     
 H26    1.0    0.758100    0.642270    0.635100 Biso 1.000000  H     
 H27    1.0    0.741900    0.142270    0.635100 Biso 1.000000  H     
 H28    1.0    0.258100    0.142270    0.135100 Biso 1.000000  H     
 H29    1.0    0.065480    0.690730    0.223300 Biso 1.000000  H     
 H30    1.0    0.934520    0.690730    0.723300 Biso 1.000000  H     
 H31    1.0    0.565480    0.190730    0.723300 Biso 1.000000  H     
 H32    1.0    0.434520    0.190730    0.223300 Biso 1.000000  H     
 H33    1.0    0.235020    0.621240    0.411380 Biso 1.000000  H     
 H34    1.0    0.764980    0.621240    0.911380 Biso 1.000000  H     
 H35    1.0    0.735020    0.121240    0.911380 Biso 1.000000  H     
 H36    1.0    0.264980    0.121240    0.411380 Biso 1.000000  H     
 H37    1.0    0.394570    0.710560    0.364630 Biso 1.000000  H     
 H38    1.0    0.605430    0.710560    0.864630 Biso 1.000000  H     
 H39    1.0    0.894570    0.210560    0.864630 Biso 1.000000  H     
 H40    1.0    0.105430    0.210560    0.364630 Biso 1.000000  H     
 H41    1.0    0.212160    0.768460    0.451190 Biso 1.000000  H     
 H42    1.0    0.787840    0.768460    0.951190 Biso 1.000000  H     
 H43    1.0    0.712160    0.268460    0.951190 Biso 1.000000  H     
 H44    1.0    0.287840    0.268460    0.451190 Biso 1.000000  H     
 N1     1.0    0.191440    0.704880    0.215290 Biso 1.000000  N     
 N2     1.0    0.808560    0.704880    0.715290 Biso 1.000000  N     
 N3     1.0    0.691440    0.204880    0.715290 Biso 1.000000  N     
 N4     1.0    0.308560    0.204880    0.215290 Biso 1.000000  N     
