_cell_length_a                         8.242522
_cell_length_b                         12.229819
_cell_length_c                         8.641561
_cell_angle_alpha                      96.702248
_cell_angle_beta                       90.000000
_cell_angle_gamma                      90.000000
_space_group_IT_number                 1
 loop_
 _space_group_symop_operation_xyz 
 'x, y, z' 
 loop_ 
 _atom_site_label 
 _atom_site_occupancy 
 _atom_site_fract_x 
 _atom_site_fract_y
 _atom_site_fract_z
 _atom_site_adp_type
 _atom_site_U_iso_or_equiv
 _atom_site_type_symbol
 Zn1    1.0    0.246840    0.995440    0.747010 Biso 1.000000  Zn    
 Zn2    1.0    0.753160    0.995440    0.247010 Biso 1.000000  Zn    
 Zn3    1.0    0.746840    0.495440    0.247010 Biso 1.000000  Zn    
 Zn4    1.0    0.253160    0.495440    0.747010 Biso 1.000000  Zn    
 O1     1.0    0.357270    0.151230    0.740670 Biso 1.000000  O     
 O2     1.0    0.642730    0.151230    0.240670 Biso 1.000000  O     
 O3     1.0    0.857270    0.651230    0.240670 Biso 1.000000  O     
 O4     1.0    0.142730    0.651230    0.740670 Biso 1.000000  O     
 O5     1.0    0.478290    0.543050    0.663320 Biso 1.000000  O     
 O6     1.0    0.521710    0.543050    0.163320 Biso 1.000000  O     
 O7     1.0    0.978290    0.043050    0.163320 Biso 1.000000  O     
 O8     1.0    0.021710    0.043050    0.663320 Biso 1.000000  O     
 O9     1.0    0.168460    0.041810    0.977930 Biso 1.000000  O     
 O10    1.0    0.831540    0.041810    0.477930 Biso 1.000000  O     
 O11    1.0    0.668460    0.541810    0.477930 Biso 1.000000  O     
 O12    1.0    0.331540    0.541810    0.977930 Biso 1.000000  O     
 O13    1.0    0.031770    0.437080    0.834710 Biso 1.000000  O     
 O14    1.0    0.968230    0.437080    0.334710 Biso 1.000000  O     
 O15    1.0    0.531770    0.937080    0.334710 Biso 1.000000  O     
 O16    1.0    0.468230    0.937080    0.834710 Biso 1.000000  O     
 O17    1.0    0.335880    0.941730    0.514640 Biso 1.000000  O     
 O18    1.0    0.664120    0.941730    0.014640 Biso 1.000000  O     
 O19    1.0    0.835880    0.441730    0.014640 Biso 1.000000  O     
 O20    1.0    0.164120    0.441730    0.514640 Biso 1.000000  O     
 O21    1.0    0.360700    0.334210    0.748720 Biso 1.000000  O     
 O22    1.0    0.639300    0.334210    0.248720 Biso 1.000000  O     
 O23    1.0    0.860700    0.834210    0.248720 Biso 1.000000  O     
 O24    1.0    0.139300    0.834210    0.748720 Biso 1.000000  O     
 C1     1.0    0.221390    0.688990    0.347010 Biso 1.000000  C     
 C2     1.0    0.778610    0.688990    0.847010 Biso 1.000000  C     
 C3     1.0    0.721390    0.188990    0.847010 Biso 1.000000  C     
 C4     1.0    0.278610    0.188990    0.347010 Biso 1.000000  C     
 C5     1.0    0.285350    0.242780    0.745010 Biso 1.000000  C     
 C6     1.0    0.714650    0.242780    0.245010 Biso 1.000000  C     
 C7     1.0    0.785350    0.742780    0.245010 Biso 1.000000  C     
 C8     1.0    0.214650    0.742780    0.745010 Biso 1.000000  C     
 C9     1.0    0.023480    0.029310    0.022040 Biso 1.000000  C     
 C10    1.0    0.976520    0.029310    0.522040 Biso 1.000000  C     
 C11    1.0    0.523480    0.529310    0.522040 Biso 1.000000  C     
 C12    1.0    0.476520    0.529310    0.022040 Biso 1.000000  C     
 C13    1.0    0.474000    0.971750    0.466820 Biso 1.000000  C     
 C14    1.0    0.526000    0.971750    0.966820 Biso 1.000000  C     
 C15    1.0    0.974000    0.471750    0.966820 Biso 1.000000  C     
 C16    1.0    0.026000    0.471750    0.466820 Biso 1.000000  C     
 C17    1.0    0.262990    0.799140    0.128040 Biso 1.000000  C     
 C18    1.0    0.737010    0.799140    0.628040 Biso 1.000000  C     
 C19    1.0    0.762990    0.299140    0.628040 Biso 1.000000  C     
 C20    1.0    0.237010    0.299140    0.128040 Biso 1.000000  C     
 H1     1.0    0.351750    0.680770    0.366450 Biso 1.000000  H     
 H2     1.0    0.648250    0.680770    0.866450 Biso 1.000000  H     
 H3     1.0    0.851750    0.180770    0.866450 Biso 1.000000  H     
 H4     1.0    0.148250    0.180770    0.366450 Biso 1.000000  H     
 H5     1.0    0.154430    0.688110    0.455930 Biso 1.000000  H     
 H6     1.0    0.845570    0.688110    0.955930 Biso 1.000000  H     
 H7     1.0    0.654430    0.188110    0.955930 Biso 1.000000  H     
 H8     1.0    0.345570    0.188110    0.455930 Biso 1.000000  H     
 H9     1.0    0.180790    0.621220    0.262330 Biso 1.000000  H     
 H10    1.0    0.819210    0.621220    0.762330 Biso 1.000000  H     
 H11    1.0    0.680790    0.121220    0.762330 Biso 1.000000  H     
 H12    1.0    0.319210    0.121220    0.262330 Biso 1.000000  H     
 H13    1.0    0.151010    0.245120    0.745660 Biso 1.000000  H     
 H14    1.0    0.848990    0.245120    0.245660 Biso 1.000000  H     
 H15    1.0    0.651010    0.745120    0.245660 Biso 1.000000  H     
 H16    1.0    0.348990    0.745120    0.745660 Biso 1.000000  H     
 H17    1.0    0.431190    0.505510    0.431200 Biso 1.000000  H     
 H18    1.0    0.568810    0.505510    0.931200 Biso 1.000000  H     
 H19    1.0    0.931190    0.005510    0.931200 Biso 1.000000  H     
 H20    1.0    0.068810    0.005510    0.431200 Biso 1.000000  H     
 H21    1.0    0.045020    0.530910    0.046180 Biso 1.000000  H     
 H22    1.0    0.954980    0.530910    0.546180 Biso 1.000000  H     
 H23    1.0    0.545020    0.030910    0.546180 Biso 1.000000  H     
 H24    1.0    0.454980    0.030910    0.046180 Biso 1.000000  H     
 H25    1.0    0.241900    0.857730    0.364900 Biso 1.000000  H     
 H26    1.0    0.758100    0.857730    0.864900 Biso 1.000000  H     
 H27    1.0    0.741900    0.357730    0.864900 Biso 1.000000  H     
 H28    1.0    0.258100    0.357730    0.364900 Biso 1.000000  H     
 H29    1.0    0.065480    0.809270    0.276700 Biso 1.000000  H     
 H30    1.0    0.934520    0.809270    0.776700 Biso 1.000000  H     
 H31    1.0    0.565480    0.309270    0.776700 Biso 1.000000  H     
 H32    1.0    0.434520    0.309270    0.276700 Biso 1.000000  H     
 H33    1.0    0.235020    0.878760    0.088620 Biso 1.000000  H     
 H34    1.0    0.764980    0.878760    0.588620 Biso 1.000000  H     
 H35    1.0    0.735020    0.378760    0.588620 Biso 1.000000  H     
 H36    1.0    0.264980    0.378760    0.088620 Biso 1.000000  H     
 H37    1.0    0.394570    0.789440    0.135370 Biso 1.000000  H     
 H38    1.0    0.605430    0.789440    0.635370 Biso 1.000000  H     
 H39    1.0    0.894570    0.289440    0.635370 Biso 1.000000  H     
 H40    1.0    0.105430    0.289440    0.135370 Biso 1.000000  H     
 H41    1.0    0.212160    0.731540    0.048810 Biso 1.000000  H     
 H42    1.0    0.787840    0.731540    0.548810 Biso 1.000000  H     
 H43    1.0    0.712160    0.231540    0.548810 Biso 1.000000  H     
 H44    1.0    0.287840    0.231540    0.048810 Biso 1.000000  H     
 N1     1.0    0.191440    0.795120    0.284710 Biso 1.000000  N     
 N2     1.0    0.808560    0.795120    0.784710 Biso 1.000000  N     
 N3     1.0    0.691440    0.295120    0.784710 Biso 1.000000  N     
 N4     1.0    0.308560    0.295120    0.284710 Biso 1.000000  N     
