_cell_length_a                         8.242522
_cell_length_b                         12.229819
_cell_length_c                         8.641561
_cell_angle_alpha                      96.702248
_cell_angle_beta                       90.000000
_cell_angle_gamma                      90.000000
_space_group_IT_number                 1
 loop_
 _space_group_symop_operation_xyz 
 'x, y, z' 
 loop_ 
 _atom_site_label 
 _atom_site_occupancy 
 _atom_site_fract_x 
 _atom_site_fract_y
 _atom_site_fract_z
 _atom_site_adp_type
 _atom_site_U_iso_or_equiv
 _atom_site_type_symbol
 Zn1    1.0    0.248104    0.997264    0.748206 Biso 1.000000  Zn    
 Zn2    1.0    0.751896    0.997264    0.248206 Biso 1.000000  Zn    
 Zn3    1.0    0.748104    0.497264    0.248206 Biso 1.000000  Zn    
 Zn4    1.0    0.251896    0.497264    0.748206 Biso 1.000000  Zn    
 O1     1.0    0.357956    0.154142    0.742792 Biso 1.000000  O     
 O2     1.0    0.642044    0.154142    0.242792 Biso 1.000000  O     
 O3     1.0    0.857956    0.654142    0.242792 Biso 1.000000  O     
 O4     1.0    0.142044    0.654142    0.742792 Biso 1.000000  O     
 O5     1.0    0.476278    0.547024    0.663714 Biso 1.000000  O     
 O6     1.0    0.523722    0.547024    0.163714 Biso 1.000000  O     
 O7     1.0    0.976278    0.047024    0.163714 Biso 1.000000  O     
 O8     1.0    0.023722    0.047024    0.663714 Biso 1.000000  O     
 O9     1.0    0.167592    0.045102    0.979416 Biso 1.000000  O     
 O10    1.0    0.832408    0.045102    0.479416 Biso 1.000000  O     
 O11    1.0    0.667592    0.545102    0.479416 Biso 1.000000  O     
 O12    1.0    0.332408    0.545102    0.979416 Biso 1.000000  O     
 O13    1.0    0.029758    0.441054    0.835104 Biso 1.000000  O     
 O14    1.0    0.970242    0.441054    0.335104 Biso 1.000000  O     
 O15    1.0    0.529758    0.941054    0.335104 Biso 1.000000  O     
 O16    1.0    0.470242    0.941054    0.835104 Biso 1.000000  O     
 O17    1.0    0.335012    0.945022    0.516126 Biso 1.000000  O     
 O18    1.0    0.664988    0.945022    0.016126 Biso 1.000000  O     
 O19    1.0    0.835012    0.445022    0.016126 Biso 1.000000  O     
 O20    1.0    0.164988    0.445022    0.516126 Biso 1.000000  O     
 O21    1.0    0.360014    0.337122    0.750842 Biso 1.000000  O     
 O22    1.0    0.639986    0.337122    0.250842 Biso 1.000000  O     
 O23    1.0    0.860014    0.837122    0.250842 Biso 1.000000  O     
 O24    1.0    0.139986    0.837122    0.750842 Biso 1.000000  O     
 C1     1.0    0.221390    0.657712    0.229065 Biso 1.000000  C     
 C2     1.0    0.778610    0.725156    0.913802 Biso 1.000000  C     
 C3     1.0    0.721390    0.225156    0.913802 Biso 1.000000  C     
 C4     1.0    0.278610    0.157712    0.229065 Biso 1.000000  C     
 C5     1.0    0.285350    0.245668    0.747006 Biso 1.000000  C     
 C6     1.0    0.714650    0.245668    0.247006 Biso 1.000000  C     
 C7     1.0    0.785350    0.745668    0.247006 Biso 1.000000  C     
 C8     1.0    0.214650    0.745668    0.747006 Biso 1.000000  C     
 C9     1.0    0.023984    0.029098    0.024268 Biso 1.000000  C     
 C10    1.0    0.976016    0.029098    0.524268 Biso 1.000000  C     
 C11    1.0    0.523984    0.529098    0.524268 Biso 1.000000  C     
 C12    1.0    0.476016    0.529098    0.024268 Biso 1.000000  C     
 C13    1.0    0.474504    0.971538    0.469048 Biso 1.000000  C     
 C14    1.0    0.525496    0.971538    0.969048 Biso 1.000000  C     
 C15    1.0    0.974504    0.471538    0.969048 Biso 1.000000  C     
 C16    1.0    0.025496    0.471538    0.469048 Biso 1.000000  C     
 C17    1.0    0.262990    0.846004    0.159298 Biso 1.000000  C     
 C18    1.0    0.737010    0.715091    0.629268 Biso 1.000000  C     
 C19    1.0    0.762990    0.215091    0.629268 Biso 1.000000  C     
 C20    1.0    0.237010    0.346004    0.159298 Biso 1.000000  C     
 H1     1.0    0.351750    0.642365    0.236565 Biso 1.000000  H     
 H2     1.0    0.648250    0.727203    0.937757 Biso 1.000000  H     
 H3     1.0    0.851750    0.227203    0.937757 Biso 1.000000  H     
 H4     1.0    0.148250    0.142365    0.236565 Biso 1.000000  H     
 H5     1.0    0.154430    0.611391    0.308923 Biso 1.000000  H     
 H6     1.0    0.845570    0.770054    1.010181 Biso 1.000000  H     
 H7     1.0    0.654430    0.270054    1.010181 Biso 1.000000  H     
 H8     1.0    0.345570    0.111391    0.308923 Biso 1.000000  H     
 H9     1.0    0.180790    0.633616    0.109644 Biso 1.000000  H     
 H10    1.0    0.819210    0.639598    0.896208 Biso 1.000000  H     
 H11    1.0    0.680790    0.139598    0.896208 Biso 1.000000  H     
 H12    1.0    0.319210    0.133616    0.109644 Biso 1.000000  H     
 H13    1.0    0.151010    0.247072    0.747396 Biso 1.000000  H     
 H14    1.0    0.848990    0.247072    0.247396 Biso 1.000000  H     
 H15    1.0    0.651010    0.747072    0.247396 Biso 1.000000  H     
 H16    1.0    0.348990    0.747072    0.747396 Biso 1.000000  H     
 H17    1.0    0.435948    0.498226    0.435724 Biso 1.000000  H     
 H18    1.0    0.564052    0.498226    0.935724 Biso 1.000000  H     
 H19    1.0    0.935948   -0.001774    0.935724 Biso 1.000000  H     
 H20    1.0    0.064052   -0.001774    0.435724 Biso 1.000000  H     
 H21    1.0    0.049778    0.523626    0.050704 Biso 1.000000  H     
 H22    1.0    0.950222    0.523626    0.550704 Biso 1.000000  H     
 H23    1.0    0.549778    0.023626    0.550704 Biso 1.000000  H     
 H24    1.0    0.450222    0.023626    0.050704 Biso 1.000000  H     
 H25    1.0    0.241900    0.798400    0.383635 Biso 1.000000  H     
 H26    1.0    0.758100    0.857496    0.788179 Biso 1.000000  H     
 H27    1.0    0.741900    0.357496    0.788179 Biso 1.000000  H     
 H28    1.0    0.258100    0.298400    0.383635 Biso 1.000000  H     
 H29    1.0    0.065480    0.792732    0.277783 Biso 1.000000  H     
 H30    1.0    0.934520    0.784754    0.751320 Biso 1.000000  H     
 H31    1.0    0.565480    0.284754    0.751320 Biso 1.000000  H     
 H32    1.0    0.434520    0.292732    0.277783 Biso 1.000000  H     
 H33    1.0    0.235020    0.932402    0.196818 Biso 1.000000  H     
 H34    1.0    0.764980    0.757521    0.527966 Biso 1.000000  H     
 H35    1.0    0.735020    0.257521    0.527966 Biso 1.000000  H     
 H36    1.0    0.264980    0.432402    0.196818 Biso 1.000000  H     
 H37    1.0    0.394570    0.834421    0.156598 Biso 1.000000  H     
 H38    1.0    0.605430    0.710979    0.643829 Biso 1.000000  H     
 H39    1.0    0.894570    0.210979    0.643829 Biso 1.000000  H     
 H40    1.0    0.105430    0.334421    0.156598 Biso 1.000000  H     
 H41    1.0    0.212160    0.819778    0.044052 Biso 1.000000  H     
 H42    1.0    0.787840    0.631938    0.616317 Biso 1.000000  H     
 H43    1.0    0.712160    0.131938    0.616317 Biso 1.000000  H     
 H44    1.0    0.287840    0.319778    0.044052 Biso 1.000000  H     
 N1     1.0    0.191440    0.776957    0.271858 Biso 1.000000  N     
 N2     1.0    0.808560    0.777634    0.770205 Biso 1.000000  N     
 N3     1.0    0.691440    0.277634    0.770205 Biso 1.000000  N     
 N4     1.0    0.308560    0.276957    0.271858 Biso 1.000000  N     
