_cell_length_a                         8.242522
_cell_length_b                         12.229819
_cell_length_c                         8.641561
_cell_angle_alpha                      96.702248
_cell_angle_beta                       90.000000
_cell_angle_gamma                      90.000000
_space_group_IT_number                 1
 loop_
 _space_group_symop_operation_xyz 
 'x, y, z' 
 loop_ 
 _atom_site_label 
 _atom_site_occupancy 
 _atom_site_fract_x 
 _atom_site_fract_y
 _atom_site_fract_z
 _atom_site_adp_type
 _atom_site_U_iso_or_equiv
 _atom_site_type_symbol
 Zn1    1.0    0.250000    1.000000    0.750000 Biso 1.000000  Zn    
 Zn2    1.0    0.750000    1.000000    0.250000 Biso 1.000000  Zn    
 Zn3    1.0    0.750000    0.500000    0.250000 Biso 1.000000  Zn    
 Zn4    1.0    0.250000    0.500000    0.750000 Biso 1.000000  Zn    
 O1     1.0    0.358985    0.158510    0.745975 Biso 1.000000  O     
 O2     1.0    0.641015    0.158510    0.245975 Biso 1.000000  O     
 O3     1.0    0.858985    0.658510    0.245975 Biso 1.000000  O     
 O4     1.0    0.141015    0.658510    0.745975 Biso 1.000000  O     
 O5     1.0    0.473260    0.552985    0.664305 Biso 1.000000  O     
 O6     1.0    0.526740    0.552985    0.164305 Biso 1.000000  O     
 O7     1.0    0.973260    0.052985    0.164305 Biso 1.000000  O     
 O8     1.0    0.026740    0.052985    0.664305 Biso 1.000000  O     
 O9     1.0    0.166290    0.050040    0.981645 Biso 1.000000  O     
 O10    1.0    0.833710    0.050040    0.481645 Biso 1.000000  O     
 O11    1.0    0.666290    0.550040    0.481645 Biso 1.000000  O     
 O12    1.0    0.333710    0.550040    0.981645 Biso 1.000000  O     
 O13    1.0    0.026740    0.447015    0.835695 Biso 1.000000  O     
 O14    1.0    0.973260    0.447015    0.335695 Biso 1.000000  O     
 O15    1.0    0.526740    0.947015    0.335695 Biso 1.000000  O     
 O16    1.0    0.473260    0.947015    0.835695 Biso 1.000000  O     
 O17    1.0    0.333710    0.949960    0.518355 Biso 1.000000  O     
 O18    1.0    0.666290    0.949960    0.018355 Biso 1.000000  O     
 O19    1.0    0.833710    0.449960    0.018355 Biso 1.000000  O     
 O20    1.0    0.166290    0.449960    0.518355 Biso 1.000000  O     
 O21    1.0    0.358985    0.341490    0.754025 Biso 1.000000  O     
 O22    1.0    0.641015    0.341490    0.254025 Biso 1.000000  O     
 O23    1.0    0.858985    0.841490    0.254025 Biso 1.000000  O     
 O24    1.0    0.141015    0.841490    0.754025 Biso 1.000000  O     
 C1     1.0    0.221390    0.692629    0.092853 Biso 1.000000  C     
 C2     1.0    0.778610    0.807371    0.907147 Biso 1.000000  C     
 C3     1.0    0.721390    0.307371    0.907147 Biso 1.000000  C     
 C4     1.0    0.278610    0.192629    0.092853 Biso 1.000000  C     
 C5     1.0    0.285350    0.250000    0.750000 Biso 1.000000  C     
 C6     1.0    0.714650    0.250000    0.250000 Biso 1.000000  C     
 C7     1.0    0.785350    0.750000    0.250000 Biso 1.000000  C     
 C8     1.0    0.214650    0.750000    0.750000 Biso 1.000000  C     
 C9     1.0    0.024740    0.028780    0.027610 Biso 1.000000  C     
 C10    1.0    0.975260    0.028780    0.527610 Biso 1.000000  C     
 C11    1.0    0.524740    0.528780    0.527610 Biso 1.000000  C     
 C12    1.0    0.475260    0.528780    0.027610 Biso 1.000000  C     
 C13    1.0    0.475260    0.971220    0.472390 Biso 1.000000  C     
 C14    1.0    0.524740    0.971220    0.972390 Biso 1.000000  C     
 C15    1.0    0.975260    0.471220    0.972390 Biso 1.000000  C     
 C16    1.0    0.024740    0.471220    0.472390 Biso 1.000000  C     
 C17    1.0    0.262990    0.861361    0.275545 Biso 1.000000  C     
 C18    1.0    0.737010    0.638639    0.724455 Biso 1.000000  C     
 C19    1.0    0.762990    0.138639    0.724455 Biso 1.000000  C     
 C20    1.0    0.237010    0.361361    0.275545 Biso 1.000000  C     
 H1     1.0    0.351750    0.677832    0.078855 Biso 1.000000  H     
 H2     1.0    0.648250    0.822168    0.921145 Biso 1.000000  H     
 H3     1.0    0.851750    0.322168    0.921145 Biso 1.000000  H     
 H4     1.0    0.148250    0.177832    0.078855 Biso 1.000000  H     
 H5     1.0    0.154430    0.615033    0.078799 Biso 1.000000  H     
 H6     1.0    0.845570    0.884967    0.921201 Biso 1.000000  H     
 H7     1.0    0.654430    0.384967    0.921201 Biso 1.000000  H     
 H8     1.0    0.345570    0.115033    0.078799 Biso 1.000000  H     
 H9     1.0    0.180790    0.744911    0.006234 Biso 1.000000  H     
 H10    1.0    0.819210    0.755089    0.993766 Biso 1.000000  H     
 H11    1.0    0.680790    0.255089    0.993766 Biso 1.000000  H     
 H12    1.0    0.319210    0.244911    0.006234 Biso 1.000000  H     
 H13    1.0    0.151010    0.250000    0.750000 Biso 1.000000  H     
 H14    1.0    0.848990    0.250000    0.250000 Biso 1.000000  H     
 H15    1.0    0.651010    0.750000    0.250000 Biso 1.000000  H     
 H16    1.0    0.348990    0.750000    0.750000 Biso 1.000000  H     
 H17    1.0    0.443085    0.487300    0.442510 Biso 1.000000  H     
 H18    1.0    0.556915    0.487300    0.942510 Biso 1.000000  H     
 H19    1.0    0.943085   -0.012700    0.942510 Biso 1.000000  H     
 H20    1.0    0.056915   -0.012700    0.442510 Biso 1.000000  H     
 H21    1.0    0.056915    0.512700    0.057490 Biso 1.000000  H     
 H22    1.0    0.943085    0.512700    0.557490 Biso 1.000000  H     
 H23    1.0    0.556915    0.012700    0.557490 Biso 1.000000  H     
 H24    1.0    0.443085    0.012700    0.057490 Biso 1.000000  H     
 H25    1.0    0.241900    0.699730    0.331200 Biso 1.000000  H     
 H26    1.0    0.758100    0.800270    0.668800 Biso 1.000000  H     
 H27    1.0    0.741900    0.300270    0.668800 Biso 1.000000  H     
 H28    1.0    0.258100    0.199730    0.331200 Biso 1.000000  H     
 H29    1.0    0.065480    0.756786    0.272511 Biso 1.000000  H     
 H30    1.0    0.934520    0.743214    0.727489 Biso 1.000000  H     
 H31    1.0    0.565480    0.243214    0.727489 Biso 1.000000  H     
 H32    1.0    0.434520    0.256786    0.272511 Biso 1.000000  H     
 H33    1.0    0.235020    0.898763    0.393634 Biso 1.000000  H     
 H34    1.0    0.764980    0.601237    0.606366 Biso 1.000000  H     
 H35    1.0    0.735020    0.101237    0.606366 Biso 1.000000  H     
 H36    1.0    0.264980    0.398763    0.393634 Biso 1.000000  H     
 H37    1.0    0.394570    0.855006    0.260862 Biso 1.000000  H     
 H38    1.0    0.605430    0.644994    0.739138 Biso 1.000000  H     
 H39    1.0    0.894570    0.144994    0.739138 Biso 1.000000  H     
 H40    1.0    0.105430    0.355006    0.260862 Biso 1.000000  H     
 H41    1.0    0.212160    0.909786    0.188528 Biso 1.000000  H     
 H42    1.0    0.787840    0.590214    0.811472 Biso 1.000000  H     
 H43    1.0    0.712160    0.090214    0.811472 Biso 1.000000  H     
 H44    1.0    0.287840    0.409786    0.188528 Biso 1.000000  H     
 N1     1.0    0.191440    0.749424    0.251406 Biso 1.000000  N     
 N2     1.0    0.808560    0.750576    0.748594 Biso 1.000000  N     
 N3     1.0    0.691440    0.250576    0.748594 Biso 1.000000  N     
 N4     1.0    0.308560    0.249424    0.251406 Biso 1.000000  N     
