_cell_length_a                         12.513787
_cell_length_b                         12.513758
_cell_length_c                         8.502227
_cell_angle_alpha                      90.000000
_cell_angle_beta                       90.000061
_cell_angle_gamma                      120.000252
_space_group_IT_number                 1
 loop_
 _space_group_symop_operation_xyz 
 'x, y, z' 
 loop_ 
 _atom_site_label 
 _atom_site_occupancy 
 _atom_site_fract_x 
 _atom_site_fract_y
 _atom_site_fract_z
 _atom_site_adp_type
 _atom_site_U_iso_or_equiv
 _atom_site_type_symbol
 Fe1    1.0    0.161513    0.165137    0.754176 Biso 1.000000  Fe    
 Fe2    1.0    0.836495    0.497832    0.754177 Biso 1.000000  Fe    
 Fe3    1.0    0.494207    0.822849    0.754175 Biso 1.000000  Fe    
 Fe4    1.0    0.499965    0.492073    0.254176 Biso 1.000000  Fe    
 Fe5    1.0    0.824982    0.159379    0.254177 Biso 1.000000  Fe    
 Fe6    1.0    0.167270    0.834365    0.254176 Biso 1.000000  Fe    
 O1     1.0    0.095919    0.254516    0.903076 Biso 1.000000  O     
 O2     1.0    0.991469    0.563426    0.903073 Biso 1.000000  O     
 O3     1.0    0.404827    0.667874    0.903072 Biso 1.000000  O     
 O4     1.0    0.565560    0.402691    0.403078 Biso 1.000000  O     
 O5     1.0    0.670005    0.093784    0.403075 Biso 1.000000  O     
 O6     1.0    0.256650    0.989339    0.403078 Biso 1.000000  O     
 O7     1.0    0.983583    0.254073    0.108874 Biso 1.000000  O     
 O8     1.0    0.103360    0.675760    0.108875 Biso 1.000000  O     
 O9     1.0    0.405271    0.555983    0.108874 Biso 1.000000  O     
 O10    1.0    0.677895    0.403140    0.608877 Biso 1.000000  O     
 O11    1.0    0.558116    0.981449    0.608875 Biso 1.000000  O     
 O12    1.0    0.256204    0.101230    0.608876 Biso 1.000000  O     
 O13    1.0    0.322466    0.230990    0.898454 Biso 1.000000  O     
 O14    1.0    0.741391    0.336878    0.898456 Biso 1.000000  O     
 O15    1.0    0.428356    0.917951    0.898455 Biso 1.000000  O     
 O16    1.0    0.339006    0.426219    0.398458 Biso 1.000000  O     
 O17    1.0    0.920084    0.320334    0.398459 Biso 1.000000  O     
 O18    1.0    0.233122    0.739259    0.398458 Biso 1.000000  O     
 O19    1.0    0.435037    0.327333    0.111786 Biso 1.000000  O     
 O20    1.0    0.725167    0.224302    0.111786 Biso 1.000000  O     
 O21    1.0    0.332008    0.934176    0.111786 Biso 1.000000  O     
 O22    1.0    0.226437    0.329871    0.611789 Biso 1.000000  O     
 O23    1.0    0.936308    0.432908    0.611788 Biso 1.000000  O     
 O24    1.0    0.329471    0.723035    0.611788 Biso 1.000000  O     
 O25    1.0    0.062677    0.996872    0.892629 Biso 1.000000  O     
 O26    1.0    0.767066    0.596666    0.892632 Biso 1.000000  O     
 O27    1.0    0.662474    0.892279    0.892631 Biso 1.000000  O     
 O28    1.0    0.598803    0.660343    0.392630 Biso 1.000000  O     
 O29    1.0    0.894410    0.060541    0.392635 Biso 1.000000  O     
 O30    1.0    0.999002    0.764931    0.392629 Biso 1.000000  O     
 O31    1.0    0.073625    0.899353    0.107872 Biso 1.000000  O     
 O32    1.0    0.658600    0.585719    0.107870 Biso 1.000000  O     
 O33    1.0    0.759992    0.000747    0.107872 Biso 1.000000  O     
 O34    1.0    0.587849    0.757859    0.607871 Biso 1.000000  O     
 O35    1.0    0.002881    0.071493    0.607871 Biso 1.000000  O     
 O36    1.0    0.901486    0.656465    0.607871 Biso 1.000000  O     
 C1     1.0    0.015074    0.199258    0.010282 Biso 1.000000  C     
 C2     1.0    0.017054    0.644269    0.010282 Biso 1.000000  C     
 C3     1.0    0.460084    0.642288    0.010282 Biso 1.000000  C     
 C4     1.0    0.646403    0.457951    0.510286 Biso 1.000000  C     
 C5     1.0    0.644421    0.012942    0.510282 Biso 1.000000  C     
 C6     1.0    0.201391    0.014923    0.510282 Biso 1.000000  C     
 C7     1.0    0.345483    0.298050    0.020030 Biso 1.000000  C     
 C8     1.0    0.785436    0.313858    0.020032 Biso 1.000000  C     
 C9     1.0    0.361293    0.873907    0.020031 Biso 1.000000  C     
 C10    1.0    0.315990    0.359159    0.520033 Biso 1.000000  C     
 C11    1.0    0.876042    0.343354    0.520029 Biso 1.000000  C     
 C12    1.0    0.300183    0.783302    0.520028 Biso 1.000000  C     
 C13    1.0    0.121242    0.967974    0.987801 Biso 1.000000  C     
 C14    1.0    0.679603    0.538101    0.987802 Biso 1.000000  C     
 C15    1.0    0.691369    0.979742    0.987801 Biso 1.000000  C     
 C16    1.0    0.540235    0.689239    0.487802 Biso 1.000000  C     
 C17    1.0    0.981874    0.119110    0.487802 Biso 1.000000  C     
 C18    1.0    0.970106    0.677469    0.487803 Biso 1.000000  C     
 H1     1.0    0.971131    0.098041    0.015211 Biso 1.000000  H     
 H2     1.0    0.959782    0.688211    0.015210 Biso 1.000000  H     
 H3     1.0    0.561302    0.699564    0.015209 Biso 1.000000  H     
 H4     1.0    0.690345    0.559169    0.515211 Biso 1.000000  H     
 H5     1.0    0.701696    0.968999    0.515210 Biso 1.000000  H     
 H6     1.0    0.100172    0.957647    0.515208 Biso 1.000000  H     
 H7     1.0    0.283547    0.333047    0.045045 Biso 1.000000  H     
 H8     1.0    0.882370    0.375795    0.045043 Biso 1.000000  H     
 H9     1.0    0.326297    0.776973    0.045042 Biso 1.000000  H     
 H10    1.0    0.377931    0.324166    0.545044 Biso 1.000000  H     
 H11    1.0    0.779105    0.281414    0.545043 Biso 1.000000  H     
 H12    1.0    0.335179    0.880238    0.545042 Biso 1.000000  H     
 H13    1.0    0.219559    1.003966    0.968433 Biso 1.000000  H     
 H14    1.0    0.617278    0.439784    0.968433 Biso 1.000000  H     
 H15    1.0    0.655375    0.042064    0.968432 Biso 1.000000  H     
 H16    1.0    0.441917    0.653242    0.468429 Biso 1.000000  H     
 H17    1.0    0.044198    0.217427    0.468431 Biso 1.000000  H     
 H18    1.0    0.006101    0.615146    0.468433 Biso 1.000000  H     
 H19    1.0    0.135573    0.403440    0.827230 Biso 1.000000  H     
 H20    1.0    0.119571    0.529145    0.870178 Biso 1.000000  H     
 H21    1.0    0.260036    0.550265    0.809311 Biso 1.000000  H     
 H22    1.0    0.541215    0.251791    0.343916 Biso 1.000000  H     
 H23    1.0    0.557216    0.126086    0.300967 Biso 1.000000  H     
 H24    1.0    0.416751    0.104967    0.361836 Biso 1.000000  H     
 H25    1.0    0.140490    0.498321    0.684088 Biso 1.000000  H     
 H26    1.0    0.473820    0.164989    0.184091 Biso 1.000000  H     
 H27    1.0    0.452598    0.195866    0.866941 Biso 1.000000  H     
 H28    1.0    0.593620    0.217196    0.805869 Biso 1.000000  H     
 H29    1.0    0.468811    0.069812    0.823803 Biso 1.000000  H     
 H30    1.0    0.224089    0.459382    0.297463 Biso 1.000000  H     
 H31    1.0    0.083068    0.438051    0.358540 Biso 1.000000  H     
 H32    1.0    0.207875    0.585436    0.340606 Biso 1.000000  H     
 H33    1.0    0.473808    0.164986    0.680916 Biso 1.000000  H     
 H34    1.0    0.140476    0.498318    0.180914 Biso 1.000000  H     
 H35    1.0    0.907055    0.848917    0.139621 Biso 1.000000  H     
 H36    1.0    0.755473    0.742131    0.181694 Biso 1.000000  H     
 H37    1.0    0.806981    0.897694    0.200923 Biso 1.000000  H     
 H38    1.0    0.739285    0.810248    0.708542 Biso 1.000000  H     
 H39    1.0    0.890866    0.917033    0.666466 Biso 1.000000  H     
 H40    1.0    0.839359    0.761472    0.647234 Biso 1.000000  H     
 H41    1.0    0.854323    0.825559    0.325145 Biso 1.000000  H     
 H42    1.0    0.854324    0.825557    0.825145 Biso 1.000000  H     
 N1     1.0    0.164073    0.495273    0.798453 Biso 1.000000  N     
 N2     1.0    0.497406    0.161938    0.298453 Biso 1.000000  N     
 N3     1.0    0.497408    0.161940    0.795330 Biso 1.000000  N     
 N4     1.0    0.164071    0.495272    0.295330 Biso 1.000000  N     
 N5     1.0    0.830738    0.828607    0.210772 Biso 1.000000  N     
 N6     1.0    0.830737    0.828603    0.710772 Biso 1.000000  N     
