_cell_length_a                         12.513787
_cell_length_b                         12.513758
_cell_length_c                         8.502227
_cell_angle_alpha                      90.000000
_cell_angle_beta                       90.000061
_cell_angle_gamma                      120.000252
_space_group_IT_number                 1
 loop_
 _space_group_symop_operation_xyz 
 'x, y, z' 
 loop_ 
 _atom_site_label 
 _atom_site_occupancy 
 _atom_site_fract_x 
 _atom_site_fract_y
 _atom_site_fract_z
 _atom_site_adp_type
 _atom_site_U_iso_or_equiv
 _atom_site_type_symbol
 Fe1    1.0    0.165137    0.161513    0.755824 Biso 1.000000  Fe    
 Fe2    1.0    0.822849    0.494207    0.755825 Biso 1.000000  Fe    
 Fe3    1.0    0.497832    0.836495    0.755823 Biso 1.000000  Fe    
 Fe4    1.0    0.492073    0.499965    0.255824 Biso 1.000000  Fe    
 Fe5    1.0    0.834365    0.167270    0.255824 Biso 1.000000  Fe    
 Fe6    1.0    0.159379    0.824982    0.255823 Biso 1.000000  Fe    
 O1     1.0    0.101230    0.256204    0.901124 Biso 1.000000  O     
 O2     1.0    0.981449    0.558116    0.901125 Biso 1.000000  O     
 O3     1.0    0.403140    0.677895    0.901123 Biso 1.000000  O     
 O4     1.0    0.555983    0.405271    0.401126 Biso 1.000000  O     
 O5     1.0    0.675760    0.103360    0.401125 Biso 1.000000  O     
 O6     1.0    0.254073    0.983583    0.401126 Biso 1.000000  O     
 O7     1.0    0.989339    0.256650    0.106922 Biso 1.000000  O     
 O8     1.0    0.093784    0.670005    0.106925 Biso 1.000000  O     
 O9     1.0    0.402691    0.565560    0.106922 Biso 1.000000  O     
 O10    1.0    0.667874    0.404827    0.606928 Biso 1.000000  O     
 O11    1.0    0.563426    0.991469    0.606927 Biso 1.000000  O     
 O12    1.0    0.254516    0.095919    0.606924 Biso 1.000000  O     
 O13    1.0    0.329871    0.226437    0.898211 Biso 1.000000  O     
 O14    1.0    0.723035    0.329471    0.898212 Biso 1.000000  O     
 O15    1.0    0.432908    0.936308    0.898212 Biso 1.000000  O     
 O16    1.0    0.327333    0.435037    0.398213 Biso 1.000000  O     
 O17    1.0    0.934176    0.332008    0.398214 Biso 1.000000  O     
 O18    1.0    0.224302    0.725167    0.398213 Biso 1.000000  O     
 O19    1.0    0.426219    0.339006    0.111543 Biso 1.000000  O     
 O20    1.0    0.739259    0.233122    0.111543 Biso 1.000000  O     
 O21    1.0    0.320334    0.920084    0.111541 Biso 1.000000  O     
 O22    1.0    0.230990    0.322466    0.611546 Biso 1.000000  O     
 O23    1.0    0.917951    0.428356    0.611545 Biso 1.000000  O     
 O24    1.0    0.336878    0.741391    0.611544 Biso 1.000000  O     
 O25    1.0    0.071493    1.002881    0.902129 Biso 1.000000  O     
 O26    1.0    0.757859    0.587849    0.902129 Biso 1.000000  O     
 O27    1.0    0.656465    0.901486    0.902129 Biso 1.000000  O     
 O28    1.0    0.585719    0.658600    0.402130 Biso 1.000000  O     
 O29    1.0    0.899353    0.073625    0.402128 Biso 1.000000  O     
 O30    1.0    1.000747    0.759992    0.402128 Biso 1.000000  O     
 O31    1.0    0.060541    0.894410    0.117365 Biso 1.000000  O     
 O32    1.0    0.660343    0.598803    0.117370 Biso 1.000000  O     
 O33    1.0    0.764931   -0.000998    0.117371 Biso 1.000000  O     
 O34    1.0    0.596666    0.767066    0.617368 Biso 1.000000  O     
 O35    1.0   -0.003128    0.062677    0.617371 Biso 1.000000  O     
 O36    1.0    0.892279    0.662474    0.617369 Biso 1.000000  O     
 C1     1.0    0.014923    0.201391   -0.000282 Biso 1.000000  C     
 C2     1.0    0.012942    0.644421   -0.000282 Biso 1.000000  C     
 C3     1.0    0.457951    0.646403   -0.000286 Biso 1.000000  C     
 C4     1.0    0.642288    0.460084    0.499718 Biso 1.000000  C     
 C5     1.0    0.644269    0.017054    0.499718 Biso 1.000000  C     
 C6     1.0    0.199258    0.015074    0.499717 Biso 1.000000  C     
 C7     1.0    0.359159    0.315990   -0.010033 Biso 1.000000  C     
 C8     1.0    0.783302    0.300183   -0.010028 Biso 1.000000  C     
 C9     1.0    0.343354    0.876042   -0.010029 Biso 1.000000  C     
 C10    1.0    0.298050    0.345483    0.489970 Biso 1.000000  C     
 C11    1.0    0.873907    0.361293    0.489969 Biso 1.000000  C     
 C12    1.0    0.313858    0.785436    0.489968 Biso 1.000000  C     
 C13    1.0    0.119110    0.981874    1.022198 Biso 1.000000  C     
 C14    1.0    0.689239    0.540235    1.022198 Biso 1.000000  C     
 C15    1.0    0.677469    0.970106    1.022197 Biso 1.000000  C     
 C16    1.0    0.538101    0.679603    0.522198 Biso 1.000000  C     
 C17    1.0    0.967974    0.121242    0.522199 Biso 1.000000  C     
 C18    1.0    0.979742    0.691369    0.522199 Biso 1.000000  C     
 H1     1.0    0.957647    0.100172   -0.005208 Biso 1.000000  H     
 H2     1.0    0.968999    0.701696   -0.005210 Biso 1.000000  H     
 H3     1.0    0.559169    0.690345   -0.005211 Biso 1.000000  H     
 H4     1.0    0.699564    0.561302    0.494791 Biso 1.000000  H     
 H5     1.0    0.688211    0.959782    0.494790 Biso 1.000000  H     
 H6     1.0    0.098041    0.971131    0.494789 Biso 1.000000  H     
 H7     1.0    0.324166    0.377931   -0.035044 Biso 1.000000  H     
 H8     1.0    0.880238    0.335179   -0.035042 Biso 1.000000  H     
 H9     1.0    0.281414    0.779105   -0.035043 Biso 1.000000  H     
 H10    1.0    0.333047    0.283547    0.464955 Biso 1.000000  H     
 H11    1.0    0.776973    0.326297    0.464958 Biso 1.000000  H     
 H12    1.0    0.375795    0.882370    0.464957 Biso 1.000000  H     
 H13    1.0    0.217427    1.044198    1.041569 Biso 1.000000  H     
 H14    1.0    0.653242    0.441917    1.041571 Biso 1.000000  H     
 H15    1.0    0.615146    0.006101    1.041567 Biso 1.000000  H     
 H16    1.0    0.439784    0.617278    0.541567 Biso 1.000000  H     
 H17    1.0    0.003966    0.219559    0.541567 Biso 1.000000  H     
 H18    1.0    0.042064    0.655375    0.541568 Biso 1.000000  H     
 H19    1.0    0.072088    0.453656    0.669207 Biso 1.000000  H     
 H20    1.0    0.197725    0.437539    0.712159 Biso 1.000000  H     
 H21    1.0    0.218956    0.578046    0.651287 Biso 1.000000  H     
 H22    1.0    0.587089    0.192502    0.185892 Biso 1.000000  H     
 H23    1.0    0.461452    0.208620    0.142946 Biso 1.000000  H     
 H24    1.0    0.440221    0.068112    0.203812 Biso 1.000000  H     
 H25    1.0    0.158911    0.521005    0.829033 Biso 1.000000  H     
 H26    1.0    0.492246    0.187665    0.329035 Biso 1.000000  H     
 H27    1.0    0.531230    0.104110    0.709414 Biso 1.000000  H     
 H28    1.0    0.552447    0.245089    0.648337 Biso 1.000000  H     
 H29    1.0    0.405108    0.120207    0.666272 Biso 1.000000  H     
 H30    1.0    0.127959    0.542164    0.139934 Biso 1.000000  H     
 H31    1.0    0.106741    0.401185    0.201009 Biso 1.000000  H     
 H32    1.0    0.254082    0.526067    0.183074 Biso 1.000000  H     
 H33    1.0    0.492205    0.187653    0.825964 Biso 1.000000  H     
 H34    1.0    0.158869    0.520991    0.325960 Biso 1.000000  H     
 H35    1.0    0.846962    0.922190    0.301456 Biso 1.000000  H     
 H36    1.0    0.740176    0.770609    0.343535 Biso 1.000000  H     
 H37    1.0    0.895738    0.822117    0.362766 Biso 1.000000  H     
 H38    1.0    0.808292    0.754420    0.870381 Biso 1.000000  H     
 H39    1.0    0.915078    0.906001    0.828305 Biso 1.000000  H     
 H40    1.0    0.759517    0.854495    0.809076 Biso 1.000000  H     
 H41    1.0    0.831654    0.807150    0.184856 Biso 1.000000  H     
 H42    1.0    0.831652    0.807152    0.684856 Biso 1.000000  H     
 N1     1.0    0.161940    0.497407    0.714670 Biso 1.000000  N     
 N2     1.0    0.495272    0.164070    0.214670 Biso 1.000000  N     
 N3     1.0    0.495273    0.164072    0.711546 Biso 1.000000  N     
 N4     1.0    0.161939    0.497405    0.211546 Biso 1.000000  N     
 N5     1.0    0.828607    0.830739    0.299228 Biso 1.000000  N     
 N6     1.0    0.828603    0.830738    0.799228 Biso 1.000000  N     
