_cell_length_a                         12.513787
_cell_length_b                         12.513758
_cell_length_c                         8.502227
_cell_angle_alpha                      90.000000
_cell_angle_beta                       90.000061
_cell_angle_gamma                      120.000252
_space_group_IT_number                 1
 loop_
 _space_group_symop_operation_xyz 
 'x, y, z' 
 loop_ 
 _atom_site_label 
 _atom_site_occupancy 
 _atom_site_fract_x 
 _atom_site_fract_y
 _atom_site_fract_z
 _atom_site_adp_type
 _atom_site_U_iso_or_equiv
 _atom_site_type_symbol
 Fe1    1.0    0.163778    0.162872    0.755206 Biso 1.000000  Fe    
 Fe2    1.0    0.827966    0.495566    0.755207 Biso 1.000000  Fe    
 Fe3    1.0    0.496473    0.831378    0.755205 Biso 1.000000  Fe    
 Fe4    1.0    0.495033    0.497005    0.255206 Biso 1.000000  Fe    
 Fe5    1.0    0.830846    0.164311    0.255206 Biso 1.000000  Fe    
 Fe6    1.0    0.162338    0.828501    0.255205 Biso 1.000000  Fe    
 O1     1.0    0.099238    0.255571    0.901856 Biso 1.000000  O     
 O2     1.0    0.985206    0.560107    0.901855 Biso 1.000000  O     
 O3     1.0    0.403773    0.674137    0.901854 Biso 1.000000  O     
 O4     1.0    0.559574    0.404303    0.401858 Biso 1.000000  O     
 O5     1.0    0.673602    0.099769    0.401856 Biso 1.000000  O     
 O6     1.0    0.255039    0.985741    0.401858 Biso 1.000000  O     
 O7     1.0    0.987180    0.255684    0.107654 Biso 1.000000  O     
 O8     1.0    0.097375    0.672163    0.107656 Biso 1.000000  O     
 O9     1.0    0.403659    0.561969    0.107654 Biso 1.000000  O     
 O10    1.0    0.671632    0.404194    0.607659 Biso 1.000000  O     
 O11    1.0    0.561435    0.987712    0.607657 Biso 1.000000  O     
 O12    1.0    0.255149    0.097911    0.607656 Biso 1.000000  O     
 O13    1.0    0.327094    0.228144    0.898302 Biso 1.000000  O     
 O14    1.0    0.729919    0.332249    0.898304 Biso 1.000000  O     
 O15    1.0    0.431201    0.929424    0.898303 Biso 1.000000  O     
 O16    1.0    0.331710    0.431730    0.398305 Biso 1.000000  O     
 O17    1.0    0.928892    0.327630    0.398306 Biso 1.000000  O     
 O18    1.0    0.227610    0.730452    0.398305 Biso 1.000000  O     
 O19    1.0    0.429526    0.334629    0.111634 Biso 1.000000  O     
 O20    1.0    0.733974    0.229814    0.111634 Biso 1.000000  O     
 O21    1.0    0.324712    0.925368    0.111633 Biso 1.000000  O     
 O22    1.0    0.229283    0.325243    0.611637 Biso 1.000000  O     
 O23    1.0    0.924835    0.430063    0.611636 Biso 1.000000  O     
 O24    1.0    0.334100    0.734508    0.611636 Biso 1.000000  O     
 O25    1.0    0.068187    1.000628    0.898566 Biso 1.000000  O     
 O26    1.0    0.761312    0.591155    0.898568 Biso 1.000000  O     
 O27    1.0    0.658718    0.898033    0.898567 Biso 1.000000  O     
 O28    1.0    0.590626    0.659254    0.398567 Biso 1.000000  O     
 O29    1.0    0.897499    0.068719    0.398568 Biso 1.000000  O     
 O30    1.0    1.000093    0.761844    0.398566 Biso 1.000000  O     
 O31    1.0    0.065447    0.896264    0.113805 Biso 1.000000  O     
 O32    1.0    0.659689    0.593896    0.113807 Biso 1.000000  O     
 O33    1.0    0.763079   -0.000344    0.113809 Biso 1.000000  O     
 O34    1.0    0.593360    0.763613    0.613807 Biso 1.000000  O     
 O35    1.0   -0.000875    0.065983    0.613808 Biso 1.000000  O     
 O36    1.0    0.895732    0.660221    0.613807 Biso 1.000000  O     
 C1     1.0    0.014980    0.200591    0.003680 Biso 1.000000  C     
 C2     1.0    0.014484    0.644364    0.003679 Biso 1.000000  C     
 C3     1.0    0.458751    0.644860    0.003677 Biso 1.000000  C     
 C4     1.0    0.643831    0.459284    0.503681 Biso 1.000000  C     
 C5     1.0    0.644326    0.015512    0.503679 Biso 1.000000  C     
 C6     1.0    0.200058    0.015017    0.503679 Biso 1.000000  C     
 C7     1.0    0.354030    0.309263    0.001241 Biso 1.000000  C     
 C8     1.0    0.784102    0.305311    0.001244 Biso 1.000000  C     
 C9     1.0    0.350081    0.875241    0.001244 Biso 1.000000  C     
 C10    1.0    0.304777    0.350611    0.501244 Biso 1.000000  C     
 C11    1.0    0.874708    0.354566    0.501242 Biso 1.000000  C     
 C12    1.0    0.308730    0.784636    0.501240 Biso 1.000000  C     
 C13    1.0    0.119909    0.976662    1.009299 Biso 1.000000  C     
 C14    1.0    0.685626    0.539435    1.009300 Biso 1.000000  C     
 C15    1.0    0.682681    0.973719    1.009298 Biso 1.000000  C     
 C16    1.0    0.538901    0.683216    0.509300 Biso 1.000000  C     
 C17    1.0    0.973187    0.120443    0.509300 Biso 1.000000  C     
 C18    1.0    0.976128    0.686157    0.509300 Biso 1.000000  C     
 H1     1.0    0.962704    0.099373    0.002449 Biso 1.000000  H     
 H2     1.0    0.965543    0.696639    0.002448 Biso 1.000000  H     
 H3     1.0    0.559969    0.693802    0.002447 Biso 1.000000  H     
 H4     1.0    0.696107    0.560502    0.502449 Biso 1.000000  H     
 H5     1.0    0.693268    0.963238    0.502448 Biso 1.000000  H     
 H6     1.0    0.098840    0.966074    0.502446 Biso 1.000000  H     
 H7     1.0    0.308934    0.361099   -0.005011 Biso 1.000000  H     
 H8     1.0    0.881037    0.350410   -0.005010 Biso 1.000000  H     
 H9     1.0    0.298245    0.778305   -0.005011 Biso 1.000000  H     
 H10    1.0    0.349878    0.298779    0.494988 Biso 1.000000  H     
 H11    1.0    0.777773    0.309466    0.494990 Biso 1.000000  H     
 H12    1.0    0.360564    0.881571    0.494989 Biso 1.000000  H     
 H13    1.0    0.218226    1.029111    1.014143 Biso 1.000000  H     
 H14    1.0    0.639756    0.441117    1.014144 Biso 1.000000  H     
 H15    1.0    0.630232    0.019587    1.014141 Biso 1.000000  H     
 H16    1.0    0.440584    0.630764    0.514140 Biso 1.000000  H     
 H17    1.0    0.019053    0.218760    0.514141 Biso 1.000000  H     
 H18    1.0    0.028578    0.640289    0.514142 Biso 1.000000  H     
 H19    1.0    0.090386    0.411166    0.708351 Biso 1.000000  H     
 H20    1.0    0.209604    0.484753    0.840536 Biso 1.000000  H     
 H21    1.0    0.223730    0.542515    0.653202 Biso 1.000000  H     
 H22    1.0    0.592092    0.214453    0.259705 Biso 1.000000  H     
 H23    1.0    0.472873    0.140868    0.127522 Biso 1.000000  H     
 H24    1.0    0.458749    0.083105    0.314855 Biso 1.000000  H     
 H25    1.0    0.126282    0.549376    0.783245 Biso 1.000000  H     
 H26    1.0    0.459618    0.216041    0.283252 Biso 1.000000  H     
 H27    1.0    0.542961    0.151545    0.837903 Biso 1.000000  H     
 H28    1.0    0.557188    0.209583    0.649931 Biso 1.000000  H     
 H29    1.0    0.423407    0.077705    0.705130 Biso 1.000000  H     
 H30    1.0    0.139408    0.474345    0.124067 Biso 1.000000  H     
 H31    1.0    0.125180    0.416305    0.312038 Biso 1.000000  H     
 H32    1.0    0.258962    0.548184    0.256841 Biso 1.000000  H     
 H33    1.0    0.459528    0.216000    0.780146 Biso 1.000000  H     
 H34    1.0    0.126191    0.549333    0.280137 Biso 1.000000  H     
 H35    1.0    0.832448    0.885553    0.171917 Biso 1.000000  H     
 H36    1.0    0.738028    0.770645    0.301414 Biso 1.000000  H     
 H37    1.0    0.882602    0.884376    0.360599 Biso 1.000000  H     
 H38    1.0    0.802943    0.808164    0.884042 Biso 1.000000  H     
 H39    1.0    0.897362    0.923074    0.754545 Biso 1.000000  H     
 H40    1.0    0.752788    0.809345    0.695359 Biso 1.000000  H     
 H41    1.0    0.865901    0.777198    0.228898 Biso 1.000000  H     
 H42    1.0    0.865900    0.777198    0.728896 Biso 1.000000  H     
 N1     1.0    0.162740    0.496606    0.746089 Biso 1.000000  N     
 N2     1.0    0.496072    0.163270    0.246089 Biso 1.000000  N     
 N3     1.0    0.496074    0.163271    0.742965 Biso 1.000000  N     
 N4     1.0    0.162739    0.496604    0.242965 Biso 1.000000  N     
 N5     1.0    0.829406    0.829941    0.266057 Biso 1.000000  N     
 N6     1.0    0.829402    0.829938    0.766057 Biso 1.000000  N     
