_cell_length_a                         12.513787
_cell_length_b                         12.513758
_cell_length_c                         8.502227
_cell_angle_alpha                      90.000000
_cell_angle_beta                       90.000061
_cell_angle_gamma                      120.000252
_space_group_IT_number                 1
 loop_
 _space_group_symop_operation_xyz 
 'x, y, z' 
 loop_ 
 _atom_site_label 
 _atom_site_occupancy 
 _atom_site_fract_x 
 _atom_site_fract_y
 _atom_site_fract_z
 _atom_site_adp_type
 _atom_site_U_iso_or_equiv
 _atom_site_type_symbol
 Fe1    1.0    0.165590    0.161060    0.756030 Biso 1.000000  Fe    
 Fe2    1.0    0.821143    0.493754    0.756031 Biso 1.000000  Fe    
 Fe3    1.0    0.498285    0.838201    0.756029 Biso 1.000000  Fe    
 Fe4    1.0    0.491087    0.500951    0.256030 Biso 1.000000  Fe    
 Fe5    1.0    0.835538    0.168257    0.256030 Biso 1.000000  Fe    
 Fe6    1.0    0.158392    0.823809    0.256029 Biso 1.000000  Fe    
 O1     1.0    0.101894    0.256415    0.900880 Biso 1.000000  O     
 O2     1.0    0.980196    0.557452    0.900881 Biso 1.000000  O     
 O3     1.0    0.402929    0.679148    0.900879 Biso 1.000000  O     
 O4     1.0    0.554786    0.405593    0.400882 Biso 1.000000  O     
 O5     1.0    0.676479    0.104557    0.400881 Biso 1.000000  O     
 O6     1.0    0.253751    0.982863    0.400882 Biso 1.000000  O     
 O7     1.0    0.990058    0.256972    0.106678 Biso 1.000000  O     
 O8     1.0    0.092587    0.669286    0.106681 Biso 1.000000  O     
 O9     1.0    0.402369    0.566757    0.106678 Biso 1.000000  O     
 O10    1.0    0.666621    0.405038    0.606684 Biso 1.000000  O     
 O11    1.0    0.564090    0.992722    0.606683 Biso 1.000000  O     
 O12    1.0    0.254305    0.095255    0.606680 Biso 1.000000  O     
 O13    1.0    0.330797    0.225868    0.898180 Biso 1.000000  O     
 O14    1.0    0.720741    0.328545    0.898182 Biso 1.000000  O     
 O15    1.0    0.433477    0.938603    0.898182 Biso 1.000000  O     
 O16    1.0    0.325874    0.436139    0.398183 Biso 1.000000  O     
 O17    1.0    0.935938    0.333467    0.398183 Biso 1.000000  O     
 O18    1.0    0.223200    0.723406    0.398183 Biso 1.000000  O     
 O19    1.0    0.425117    0.340465    0.111512 Biso 1.000000  O     
 O20    1.0    0.741020    0.234224    0.111512 Biso 1.000000  O     
 O21    1.0    0.318875    0.918322    0.111510 Biso 1.000000  O     
 O22    1.0    0.231559    0.321540    0.611515 Biso 1.000000  O     
 O23    1.0    0.915656    0.427787    0.611515 Biso 1.000000  O     
 O24    1.0    0.337804    0.743686    0.611514 Biso 1.000000  O     
 O25    1.0    0.072595    1.003632    0.903316 Biso 1.000000  O     
 O26    1.0    0.756708    0.586747    0.903316 Biso 1.000000  O     
 O27    1.0    0.655714    0.902637    0.903316 Biso 1.000000  O     
 O28    1.0    0.584084    0.658382    0.403317 Biso 1.000000  O     
 O29    1.0    0.899971    0.075261    0.403315 Biso 1.000000  O     
 O30    1.0    1.000965    0.759374    0.403315 Biso 1.000000  O     
 O31    1.0    0.058905    0.893792    0.118552 Biso 1.000000  O     
 O32    1.0    0.660561    0.600438    0.118557 Biso 1.000000  O     
 O33    1.0    0.765549   -0.001216    0.118558 Biso 1.000000  O     
 O34    1.0    0.597768    0.768217    0.618555 Biso 1.000000  O     
 O35    1.0   -0.003879    0.061575    0.618558 Biso 1.000000  O     
 O36    1.0    0.891128    0.663225    0.618556 Biso 1.000000  O     
 C1     1.0    0.014904    0.201658   -0.001602 Biso 1.000000  C     
 C2     1.0    0.012428    0.644440   -0.001603 Biso 1.000000  C     
 C3     1.0    0.457684    0.646917   -0.001607 Biso 1.000000  C     
 C4     1.0    0.641774    0.460351    0.498397 Biso 1.000000  C     
 C5     1.0    0.644250    0.017568    0.498397 Biso 1.000000  C     
 C6     1.0    0.198991    0.015093    0.498397 Biso 1.000000  C     
 C7     1.0    0.360868    0.318233   -0.013791 Biso 1.000000  C     
 C8     1.0    0.783035    0.298474   -0.013786 Biso 1.000000  C     
 C9     1.0    0.341112    0.876309   -0.013786 Biso 1.000000  C     
 C10    1.0    0.295807    0.343773    0.486212 Biso 1.000000  C     
 C11    1.0    0.873640    0.363535    0.486212 Biso 1.000000  C     
 C12    1.0    0.315567    0.785703    0.486210 Biso 1.000000  C     
 C13    1.0    0.118843    0.983612    1.026498 Biso 1.000000  C     
 C14    1.0    0.690444    0.540502    1.026498 Biso 1.000000  C     
 C15    1.0    0.675731    0.968901    1.026496 Biso 1.000000  C     
 C16    1.0    0.537834    0.678398    0.526498 Biso 1.000000  C     
 C17    1.0    0.966237    0.121509    0.526499 Biso 1.000000  C     
 C18    1.0    0.980946    0.693107    0.526498 Biso 1.000000  C     
 H1     1.0    0.955962    0.100439   -0.007760 Biso 1.000000  H     
 H2     1.0    0.970151    0.703381   -0.007762 Biso 1.000000  H     
 H3     1.0    0.558902    0.689193   -0.007763 Biso 1.000000  H     
 H4     1.0    0.700716    0.561569    0.492239 Biso 1.000000  H     
 H5     1.0    0.686526    0.958630    0.492238 Biso 1.000000  H     
 H6     1.0    0.097774    0.972816    0.492237 Biso 1.000000  H     
 H7     1.0    0.329243    0.383541   -0.045055 Biso 1.000000  H     
 H8     1.0    0.879971    0.330102   -0.045053 Biso 1.000000  H     
 H9     1.0    0.275804    0.779371   -0.045054 Biso 1.000000  H     
 H10    1.0    0.327436    0.278470    0.454944 Biso 1.000000  H     
 H11    1.0    0.776707    0.331907    0.454947 Biso 1.000000  H     
 H12    1.0    0.380872    0.882637    0.454946 Biso 1.000000  H     
 H13    1.0    0.217160    1.049227    1.050711 Biso 1.000000  H     
 H14    1.0    0.657738    0.442184    1.050713 Biso 1.000000  H     
 H15    1.0    0.610117    0.001606    1.050709 Biso 1.000000  H     
 H16    1.0    0.439517    0.612782    0.550709 Biso 1.000000  H     
 H17    1.0   -0.001063    0.219826    0.550709 Biso 1.000000  H     
 H18    1.0    0.046559    0.660404    0.550710 Biso 1.000000  H     
 H19    1.0    0.072464    0.471470    0.665167 Biso 1.000000  H     
 H20    1.0    0.187873    0.434669    0.665170 Biso 1.000000  H     
 H21    1.0    0.224682    0.586880    0.665166 Biso 1.000000  H     
 H22    1.0    0.584214    0.190540    0.165166 Biso 1.000000  H     
 H23    1.0    0.468805    0.227341    0.165169 Biso 1.000000  H     
 H24    1.0    0.431995    0.075130    0.165167 Biso 1.000000  H     
 H25    1.0    0.161672    0.497676    0.824448 Biso 1.000000  H     
 H26    1.0    0.495007    0.164335    0.324447 Biso 1.000000  H     
 H27    1.0    0.521362    0.101152    0.662304 Biso 1.000000  H     
 H28    1.0    0.558182    0.253872    0.662303 Biso 1.000000  H     
 H29    1.0    0.405473    0.137985    0.662303 Biso 1.000000  H     
 H30    1.0    0.135316    0.560858    0.162303 Biso 1.000000  H     
 H31    1.0    0.098496    0.408138    0.162303 Biso 1.000000  H     
 H32    1.0    0.251205    0.524025    0.162303 Biso 1.000000  H     
 H33    1.0    0.495006    0.164335    0.821377 Biso 1.000000  H     
 H34    1.0    0.161671    0.497675    0.321377 Biso 1.000000  H     
 H35    1.0    0.856525    0.920867    0.348862 Biso 1.000000  H     
 H36    1.0    0.738473    0.769329    0.348865 Biso 1.000000  H     
 H37    1.0    0.890012    0.802818    0.348866 Biso 1.000000  H     
 H38    1.0    0.800151    0.741141    0.848864 Biso 1.000000  H     
 H39    1.0    0.918203    0.892679    0.848864 Biso 1.000000  H     
 H40    1.0    0.766665    0.859192    0.848866 Biso 1.000000  H     
 H41    1.0    0.828340    0.831003    0.190026 Biso 1.000000  H     
 H42    1.0    0.828338    0.831005    0.690026 Biso 1.000000  H     
 N1     1.0    0.161673    0.497674    0.704198 Biso 1.000000  N     
 N2     1.0    0.495005    0.164337    0.204198 Biso 1.000000  N     
 N3     1.0    0.495006    0.164339    0.701073 Biso 1.000000  N     
 N4     1.0    0.161672    0.497672    0.201073 Biso 1.000000  N     
 N5     1.0    0.828341    0.831005    0.310284 Biso 1.000000  N     
 N6     1.0    0.828336    0.831004    0.810284 Biso 1.000000  N     
