_cell_length_a                         12.513787
_cell_length_b                         12.513758
_cell_length_c                         8.502227
_cell_angle_alpha                      90.000000
_cell_angle_beta                       90.000061
_cell_angle_gamma                      120.000252
_space_group_IT_number                 1
 loop_
 _space_group_symop_operation_xyz 
 'x, y, z' 
 loop_ 
 _atom_site_label 
 _atom_site_occupancy 
 _atom_site_fract_x 
 _atom_site_fract_y
 _atom_site_fract_z
 _atom_site_adp_type
 _atom_site_U_iso_or_equiv
 _atom_site_type_symbol
 Fe1    1.0    0.162872    0.163778    0.754794 Biso 1.000000  Fe    
 Fe2    1.0    0.831378    0.496473    0.754795 Biso 1.000000  Fe    
 Fe3    1.0    0.495566    0.827966    0.754793 Biso 1.000000  Fe    
 Fe4    1.0    0.497005    0.495033    0.254794 Biso 1.000000  Fe    
 Fe5    1.0    0.828501    0.162338    0.254795 Biso 1.000000  Fe    
 Fe6    1.0    0.164311    0.830846    0.254794 Biso 1.000000  Fe    
 O1     1.0    0.097911    0.255149    0.902344 Biso 1.000000  O     
 O2     1.0    0.987712    0.561435    0.902343 Biso 1.000000  O     
 O3     1.0    0.404194    0.671632    0.902341 Biso 1.000000  O     
 O4     1.0    0.561969    0.403659    0.402346 Biso 1.000000  O     
 O5     1.0    0.672163    0.097375    0.402344 Biso 1.000000  O     
 O6     1.0    0.255684    0.987180    0.402346 Biso 1.000000  O     
 O7     1.0    0.985741    0.255039    0.108142 Biso 1.000000  O     
 O8     1.0    0.099769    0.673602    0.108144 Biso 1.000000  O     
 O9     1.0    0.404303    0.559574    0.108142 Biso 1.000000  O     
 O10    1.0    0.674137    0.403773    0.608146 Biso 1.000000  O     
 O11    1.0    0.560107    0.985206    0.608145 Biso 1.000000  O     
 O12    1.0    0.255571    0.099238    0.608144 Biso 1.000000  O     
 O13    1.0    0.325243    0.229283    0.898363 Biso 1.000000  O     
 O14    1.0    0.734508    0.334100    0.898364 Biso 1.000000  O     
 O15    1.0    0.430063    0.924835    0.898364 Biso 1.000000  O     
 O16    1.0    0.334629    0.429526    0.398366 Biso 1.000000  O     
 O17    1.0    0.925368    0.324712    0.398367 Biso 1.000000  O     
 O18    1.0    0.229814    0.733974    0.398366 Biso 1.000000  O     
 O19    1.0    0.431730    0.331710    0.111695 Biso 1.000000  O     
 O20    1.0    0.730452    0.227610    0.111695 Biso 1.000000  O     
 O21    1.0    0.327630    0.928892    0.111694 Biso 1.000000  O     
 O22    1.0    0.228144    0.327094    0.611698 Biso 1.000000  O     
 O23    1.0    0.929424    0.431201    0.611697 Biso 1.000000  O     
 O24    1.0    0.332249    0.729919    0.611696 Biso 1.000000  O     
 O25    1.0    0.065983    0.999125    0.896192 Biso 1.000000  O     
 O26    1.0    0.763613    0.593360    0.896193 Biso 1.000000  O     
 O27    1.0    0.660221    0.895732    0.896193 Biso 1.000000  O     
 O28    1.0    0.593896    0.659689    0.396193 Biso 1.000000  O     
 O29    1.0    0.896264    0.065447    0.396195 Biso 1.000000  O     
 O30    1.0    0.999656    0.763079    0.396191 Biso 1.000000  O     
 O31    1.0    0.068719    0.897499    0.111432 Biso 1.000000  O     
 O32    1.0    0.659254    0.590626    0.111433 Biso 1.000000  O     
 O33    1.0    0.761844    0.000093    0.111434 Biso 1.000000  O     
 O34    1.0    0.591155    0.761312    0.611432 Biso 1.000000  O     
 O35    1.0    0.000628    0.068187    0.611434 Biso 1.000000  O     
 O36    1.0    0.898033    0.658718    0.611433 Biso 1.000000  O     
 C1     1.0    0.015017    0.200058    0.006321 Biso 1.000000  C     
 C2     1.0    0.015512    0.644326    0.006321 Biso 1.000000  C     
 C3     1.0    0.459284    0.643831    0.006319 Biso 1.000000  C     
 C4     1.0    0.644860    0.458751    0.506323 Biso 1.000000  C     
 C5     1.0    0.644364    0.014484    0.506321 Biso 1.000000  C     
 C6     1.0    0.200591    0.014980    0.506320 Biso 1.000000  C     
 C7     1.0    0.350611    0.304777    0.008756 Biso 1.000000  C     
 C8     1.0    0.784636    0.308730    0.008760 Biso 1.000000  C     
 C9     1.0    0.354566    0.874708    0.008758 Biso 1.000000  C     
 C10    1.0    0.309263    0.354030    0.508759 Biso 1.000000  C     
 C11    1.0    0.875241    0.350081    0.508756 Biso 1.000000  C     
 C12    1.0    0.305311    0.784102    0.508756 Biso 1.000000  C     
 C13    1.0    0.120443    0.973187    1.000700 Biso 1.000000  C     
 C14    1.0    0.683216    0.538901    1.000700 Biso 1.000000  C     
 C15    1.0    0.686157    0.976128    1.000700 Biso 1.000000  C     
 C16    1.0    0.539435    0.685626    0.500700 Biso 1.000000  C     
 C17    1.0    0.976662    0.119909    0.500701 Biso 1.000000  C     
 C18    1.0    0.973719    0.682681    0.500702 Biso 1.000000  C     
 H1     1.0    0.966074    0.098840    0.007554 Biso 1.000000  H     
 H2     1.0    0.963238    0.693268    0.007552 Biso 1.000000  H     
 H3     1.0    0.560502    0.696107    0.007551 Biso 1.000000  H     
 H4     1.0    0.693802    0.559969    0.507553 Biso 1.000000  H     
 H5     1.0    0.696639    0.965543    0.507552 Biso 1.000000  H     
 H6     1.0    0.099373    0.962704    0.507551 Biso 1.000000  H     
 H7     1.0    0.298779    0.349878    0.015012 Biso 1.000000  H     
 H8     1.0    0.881571    0.360564    0.015011 Biso 1.000000  H     
 H9     1.0    0.309466    0.777773    0.015010 Biso 1.000000  H     
 H10    1.0    0.361099    0.308934    0.515011 Biso 1.000000  H     
 H11    1.0    0.778305    0.298245    0.515011 Biso 1.000000  H     
 H12    1.0    0.350410    0.881037    0.515010 Biso 1.000000  H     
 H13    1.0    0.218760    1.019053    0.995859 Biso 1.000000  H     
 H14    1.0    0.630764    0.440584    0.995860 Biso 1.000000  H     
 H15    1.0    0.640289    0.028578    0.995858 Biso 1.000000  H     
 H16    1.0    0.441117    0.639756    0.495856 Biso 1.000000  H     
 H17    1.0    0.029111    0.218226    0.495857 Biso 1.000000  H     
 H18    1.0    0.019587    0.630232    0.495859 Biso 1.000000  H     
 H19    1.0    0.112029    0.400055    0.753419 Biso 1.000000  H     
 H20    1.0    0.185686    0.519263    0.885603 Biso 1.000000  H     
 H21    1.0    0.243436    0.533343    0.698270 Biso 1.000000  H     
 H22    1.0    0.582071    0.235048    0.304773 Biso 1.000000  H     
 H23    1.0    0.508413    0.115842    0.172590 Biso 1.000000  H     
 H24    1.0    0.450664    0.101761    0.359923 Biso 1.000000  H     
 H25    1.0    0.110557    0.532590    0.729873 Biso 1.000000  H     
 H26    1.0    0.443891    0.199257    0.229880 Biso 1.000000  H     
 H27    1.0    0.518856    0.186079    0.882810 Biso 1.000000  H     
 H28    1.0    0.576908    0.200349    0.694839 Biso 1.000000  H     
 H29    1.0    0.445089    0.066513    0.750038 Biso 1.000000  H     
 H30    1.0    0.175044    0.449215    0.168975 Biso 1.000000  H     
 H31    1.0    0.116993    0.434942    0.356946 Biso 1.000000  H     
 H32    1.0    0.248812    0.568780    0.301749 Biso 1.000000  H     
 H33    1.0    0.443824    0.199225    0.726740 Biso 1.000000  H     
 H34    1.0    0.110489    0.532556    0.226732 Biso 1.000000  H     
 H35    1.0    0.851712    0.855866    0.125960 Biso 1.000000  H     
 H36    1.0    0.736802    0.761447    0.255456 Biso 1.000000  H     
 H37    1.0    0.850531    0.906022    0.314640 Biso 1.000000  H     
 H38    1.0    0.774322    0.826361    0.838083 Biso 1.000000  H     
 H39    1.0    0.889231    0.920780    0.708587 Biso 1.000000  H     
 H40    1.0    0.775501    0.776208    0.649400 Biso 1.000000  H     
 H41    1.0    0.882678    0.792911    0.281107 Biso 1.000000  H     
 H42    1.0    0.882678    0.792910    0.781105 Biso 1.000000  H     
 N1     1.0    0.163274    0.496073    0.767035 Biso 1.000000  N     
 N2     1.0    0.496606    0.162737    0.267035 Biso 1.000000  N     
 N3     1.0    0.496608    0.162739    0.763911 Biso 1.000000  N     
 N4     1.0    0.163272    0.496071    0.263911 Biso 1.000000  N     
 N5     1.0    0.829938    0.829408    0.243943 Biso 1.000000  N     
 N6     1.0    0.829935    0.829404    0.743943 Biso 1.000000  N     
