_cell_length_a                         12.513787
_cell_length_b                         12.513758
_cell_length_c                         8.502227
_cell_angle_alpha                      90.000000
_cell_angle_beta                       90.000061
_cell_angle_gamma                      120.000252
_space_group_IT_number                 1
 loop_
 _space_group_symop_operation_xyz 
 'x, y, z' 
 loop_ 
 _atom_site_label 
 _atom_site_occupancy 
 _atom_site_fract_x 
 _atom_site_fract_y
 _atom_site_fract_z
 _atom_site_adp_type
 _atom_site_U_iso_or_equiv
 _atom_site_type_symbol
 Fe1    1.0    0.163325    0.163325    0.755000 Biso 1.000000  Fe    
 Fe2    1.0    0.829672    0.496020    0.755001 Biso 1.000000  Fe    
 Fe3    1.0    0.496020    0.829672    0.754999 Biso 1.000000  Fe    
 Fe4    1.0    0.496019    0.496019    0.255000 Biso 1.000000  Fe    
 Fe5    1.0    0.829673    0.163324    0.255000 Biso 1.000000  Fe    
 Fe6    1.0    0.163324    0.829673    0.254999 Biso 1.000000  Fe    
 O1     1.0    0.098575    0.255360    0.902100 Biso 1.000000  O     
 O2     1.0    0.986459    0.560771    0.902099 Biso 1.000000  O     
 O3     1.0    0.403983    0.672884    0.902097 Biso 1.000000  O     
 O4     1.0    0.560771    0.403981    0.402102 Biso 1.000000  O     
 O5     1.0    0.672883    0.098572    0.402100 Biso 1.000000  O     
 O6     1.0    0.255362    0.986460    0.402102 Biso 1.000000  O     
 O7     1.0    0.986460    0.255362    0.107898 Biso 1.000000  O     
 O8     1.0    0.098572    0.672883    0.107900 Biso 1.000000  O     
 O9     1.0    0.403981    0.560771    0.107898 Biso 1.000000  O     
 O10    1.0    0.672884    0.403983    0.607903 Biso 1.000000  O     
 O11    1.0    0.560771    0.986459    0.607901 Biso 1.000000  O     
 O12    1.0    0.255360    0.098575    0.607900 Biso 1.000000  O     
 O13    1.0    0.326168    0.228714    0.898332 Biso 1.000000  O     
 O14    1.0    0.732213    0.333174    0.898334 Biso 1.000000  O     
 O15    1.0    0.430632    0.927129    0.898334 Biso 1.000000  O     
 O16    1.0    0.333170    0.430628    0.398336 Biso 1.000000  O     
 O17    1.0    0.927130    0.326171    0.398336 Biso 1.000000  O     
 O18    1.0    0.228712    0.732213    0.398336 Biso 1.000000  O     
 O19    1.0    0.430628    0.333170    0.111664 Biso 1.000000  O     
 O20    1.0    0.732213    0.228712    0.111664 Biso 1.000000  O     
 O21    1.0    0.326171    0.927130    0.111663 Biso 1.000000  O     
 O22    1.0    0.228714    0.326168    0.611668 Biso 1.000000  O     
 O23    1.0    0.927129    0.430632    0.611667 Biso 1.000000  O     
 O24    1.0    0.333174    0.732213    0.611666 Biso 1.000000  O     
 O25    1.0    0.067085    0.999877    0.897379 Biso 1.000000  O     
 O26    1.0    0.762463    0.592257    0.897381 Biso 1.000000  O     
 O27    1.0    0.659469    0.896883    0.897380 Biso 1.000000  O     
 O28    1.0    0.592261    0.659471    0.397380 Biso 1.000000  O     
 O29    1.0    0.896881    0.067083    0.397381 Biso 1.000000  O     
 O30    1.0    0.999874    0.762462    0.397378 Biso 1.000000  O     
 O31    1.0    0.067083    0.896881    0.112619 Biso 1.000000  O     
 O32    1.0    0.659471    0.592261    0.112620 Biso 1.000000  O     
 O33    1.0    0.762462   -0.000125    0.112621 Biso 1.000000  O     
 O34    1.0    0.592257    0.762463    0.612619 Biso 1.000000  O     
 O35    1.0   -0.000123    0.067085    0.612621 Biso 1.000000  O     
 O36    1.0    0.896883    0.659469    0.612620 Biso 1.000000  O     
 C1     1.0    0.014999    0.200325    0.005000 Biso 1.000000  C     
 C2     1.0    0.014998    0.644345    0.005000 Biso 1.000000  C     
 C3     1.0    0.459017    0.644346    0.004998 Biso 1.000000  C     
 C4     1.0    0.644346    0.459017    0.505002 Biso 1.000000  C     
 C5     1.0    0.644345    0.014998    0.505000 Biso 1.000000  C     
 C6     1.0    0.200325    0.014999    0.505000 Biso 1.000000  C     
 C7     1.0    0.352321    0.307020    0.004998 Biso 1.000000  C     
 C8     1.0    0.784369    0.307021    0.005002 Biso 1.000000  C     
 C9     1.0    0.352324    0.874974    0.005001 Biso 1.000000  C     
 C10    1.0    0.307020    0.352321    0.505001 Biso 1.000000  C     
 C11    1.0    0.874974    0.352324    0.504999 Biso 1.000000  C     
 C12    1.0    0.307021    0.784369    0.504998 Biso 1.000000  C     
 C13    1.0    0.120176    0.974924    1.005000 Biso 1.000000  C     
 C14    1.0    0.684421    0.539168    1.005000 Biso 1.000000  C     
 C15    1.0    0.684419    0.974924    1.004999 Biso 1.000000  C     
 C16    1.0    0.539168    0.684421    0.505000 Biso 1.000000  C     
 C17    1.0    0.974924    0.120176    0.505000 Biso 1.000000  C     
 C18    1.0    0.974924    0.684419    0.505001 Biso 1.000000  C     
 H1     1.0    0.964389    0.099107    0.005002 Biso 1.000000  H     
 H2     1.0    0.964390    0.694954    0.005000 Biso 1.000000  H     
 H3     1.0    0.560235    0.694954    0.004999 Biso 1.000000  H     
 H4     1.0    0.694954    0.560235    0.505001 Biso 1.000000  H     
 H5     1.0    0.694954    0.964390    0.505000 Biso 1.000000  H     
 H6     1.0    0.099107    0.964389    0.504999 Biso 1.000000  H     
 H7     1.0    0.303856    0.355488    0.005001 Biso 1.000000  H     
 H8     1.0    0.881304    0.355487    0.005000 Biso 1.000000  H     
 H9     1.0    0.303856    0.778039    0.004999 Biso 1.000000  H     
 H10    1.0    0.355488    0.303856    0.505000 Biso 1.000000  H     
 H11    1.0    0.778039    0.303856    0.505000 Biso 1.000000  H     
 H12    1.0    0.355487    0.881304    0.505000 Biso 1.000000  H     
 H13    1.0    0.218493    1.024082    1.005001 Biso 1.000000  H     
 H14    1.0    0.635260    0.440851    1.005002 Biso 1.000000  H     
 H15    1.0    0.635261    0.024083    1.005000 Biso 1.000000  H     
 H16    1.0    0.440851    0.635260    0.504998 Biso 1.000000  H     
 H17    1.0    0.024082    0.218493    0.504999 Biso 1.000000  H     
 H18    1.0    0.024082    0.635261    0.505000 Biso 1.000000  H     
 H19    1.0    0.101020    0.403764    0.729563 Biso 1.000000  H     
 H20    1.0    0.201058    0.503762    0.868550 Biso 1.000000  H     
 H21    1.0    0.232844    0.535532    0.671576 Biso 1.000000  H     
 H22    1.0    0.588928    0.224937    0.283560 Biso 1.000000  H     
 H23    1.0    0.488887    0.124941    0.144575 Biso 1.000000  H     
 H24    1.0    0.457103    0.093170    0.341549 Biso 1.000000  H     
 H25    1.0    0.115866    0.543539    0.756559 Biso 1.000000  H     
 H26    1.0    0.449202    0.210206    0.256566 Biso 1.000000  H     
 H27    1.0    0.534322    0.170580    0.865859 Biso 1.000000  H     
 H28    1.0    0.566303    0.202573    0.668214 Biso 1.000000  H     
 H29    1.0    0.434052    0.070265    0.726254 Biso 1.000000  H     
 H30    1.0    0.155461    0.458366    0.141019 Biso 1.000000  H     
 H31    1.0    0.123480    0.426371    0.338664 Biso 1.000000  H     
 H32    1.0    0.255731    0.558680    0.280626 Biso 1.000000  H     
 H33    1.0    0.449119    0.210166    0.753443 Biso 1.000000  H     
 H34    1.0    0.115783    0.543498    0.253434 Biso 1.000000  H     
 H35    1.0    0.838947    0.869215    0.143480 Biso 1.000000  H     
 H36    1.0    0.736710    0.766980    0.279641 Biso 1.000000  H     
 H37    1.0    0.867946    0.898218    0.341871 Biso 1.000000  H     
 H38    1.0    0.790126    0.820396    0.866521 Biso 1.000000  H     
 H39    1.0    0.892362    0.922632    0.730360 Biso 1.000000  H     
 H40    1.0    0.761126    0.791397    0.668127 Biso 1.000000  H     
 H41    1.0    0.876844    0.782500    0.255002 Biso 1.000000  H     
 H42    1.0    0.876844    0.782499    0.755000 Biso 1.000000  H     
 N1     1.0    0.163007    0.496339    0.756562 Biso 1.000000  N     
 N2     1.0    0.496339    0.163004    0.256562 Biso 1.000000  N     
 N3     1.0    0.496341    0.163005    0.753438 Biso 1.000000  N     
 N4     1.0    0.163006    0.496337    0.253438 Biso 1.000000  N     
 N5     1.0    0.829672    0.829674    0.255000 Biso 1.000000  N     
 N6     1.0    0.829669    0.829671    0.755000 Biso 1.000000  N     
