_cell_length_a                         12.513787
_cell_length_b                         12.513758
_cell_length_c                         8.502227
_cell_angle_alpha                      90.000000
_cell_angle_beta                       90.000061
_cell_angle_gamma                      120.000252
_space_group_IT_number                 1
 loop_
 _space_group_symop_operation_xyz 
 'x, y, z' 
 loop_ 
 _atom_site_label 
 _atom_site_occupancy 
 _atom_site_fract_x 
 _atom_site_fract_y
 _atom_site_fract_z
 _atom_site_adp_type
 _atom_site_U_iso_or_equiv
 _atom_site_type_symbol
 Fe1    1.0    0.164231    0.162419    0.755412 Biso 1.000000  Fe    
 Fe2    1.0    0.826260    0.495113    0.755413 Biso 1.000000  Fe    
 Fe3    1.0    0.496926    0.833084    0.755411 Biso 1.000000  Fe    
 Fe4    1.0    0.494046    0.497992    0.255412 Biso 1.000000  Fe    
 Fe5    1.0    0.832019    0.165297    0.255412 Biso 1.000000  Fe    
 Fe6    1.0    0.161352    0.827328    0.255411 Biso 1.000000  Fe    
 O1     1.0    0.099902    0.255782    0.901612 Biso 1.000000  O     
 O2     1.0    0.983954    0.559443    0.901612 Biso 1.000000  O     
 O3     1.0    0.403562    0.675390    0.901610 Biso 1.000000  O     
 O4     1.0    0.558377    0.404626    0.401614 Biso 1.000000  O     
 O5     1.0    0.674321    0.100966    0.401612 Biso 1.000000  O     
 O6     1.0    0.254717    0.985021    0.401614 Biso 1.000000  O     
 O7     1.0    0.987900    0.256006    0.107410 Biso 1.000000  O     
 O8     1.0    0.096178    0.671444    0.107412 Biso 1.000000  O     
 O9     1.0    0.403336    0.563166    0.107410 Biso 1.000000  O     
 O10    1.0    0.670379    0.404405    0.607415 Biso 1.000000  O     
 O11    1.0    0.562099    0.988964    0.607414 Biso 1.000000  O     
 O12    1.0    0.254938    0.097247    0.607412 Biso 1.000000  O     
 O13    1.0    0.328020    0.227575    0.898272 Biso 1.000000  O     
 O14    1.0    0.727625    0.331323    0.898273 Biso 1.000000  O     
 O15    1.0    0.431770    0.931719    0.898273 Biso 1.000000  O     
 O16    1.0    0.330251    0.432832    0.398275 Biso 1.000000  O     
 O17    1.0    0.930653    0.329089    0.398275 Biso 1.000000  O     
 O18    1.0    0.226507    0.728690    0.398275 Biso 1.000000  O     
 O19    1.0    0.428424    0.336088    0.111603 Biso 1.000000  O     
 O20    1.0    0.735736    0.230917    0.111603 Biso 1.000000  O     
 O21    1.0    0.323253    0.923607    0.111602 Biso 1.000000  O     
 O22    1.0    0.229852    0.324317    0.611607 Biso 1.000000  O     
 O23    1.0    0.922540    0.429494    0.611606 Biso 1.000000  O     
 O24    1.0    0.335026    0.736802    0.611605 Biso 1.000000  O     
 O25    1.0    0.069289    1.001379    0.899754 Biso 1.000000  O     
 O26    1.0    0.760161    0.590053    0.899755 Biso 1.000000  O     
 O27    1.0    0.657967    0.899184    0.899754 Biso 1.000000  O     
 O28    1.0    0.588990    0.659036    0.399755 Biso 1.000000  O     
 O29    1.0    0.898117    0.070354    0.399755 Biso 1.000000  O     
 O30    1.0    1.000311    0.761227    0.399753 Biso 1.000000  O     
 O31    1.0    0.063812    0.895646    0.114992 Biso 1.000000  O     
 O32    1.0    0.659907    0.595532    0.114995 Biso 1.000000  O     
 O33    1.0    0.763697   -0.000562    0.114996 Biso 1.000000  O     
 O34    1.0    0.594462    0.764764    0.614994 Biso 1.000000  O     
 O35    1.0   -0.001626    0.064881    0.614996 Biso 1.000000  O     
 O36    1.0    0.894581    0.660972    0.614994 Biso 1.000000  O     
 C1     1.0    0.014961    0.200858    0.002359 Biso 1.000000  C     
 C2     1.0    0.013970    0.644383    0.002359 Biso 1.000000  C     
 C3     1.0    0.458484    0.645374    0.002356 Biso 1.000000  C     
 C4     1.0    0.643317    0.459551    0.502360 Biso 1.000000  C     
 C5     1.0    0.644307    0.016026    0.502359 Biso 1.000000  C     
 C6     1.0    0.199791    0.015036    0.502358 Biso 1.000000  C     
 C7     1.0    0.355739    0.311505   -0.002517 Biso 1.000000  C     
 C8     1.0    0.783835    0.303602   -0.002513 Biso 1.000000  C     
 C9     1.0    0.347839    0.875508   -0.002514 Biso 1.000000  C     
 C10    1.0    0.302535    0.348901    0.497486 Biso 1.000000  C     
 C11    1.0    0.874441    0.356808    0.497484 Biso 1.000000  C     
 C12    1.0    0.310439    0.784903    0.497483 Biso 1.000000  C     
 C13    1.0    0.119643    0.978400    1.013599 Biso 1.000000  C     
 C14    1.0    0.686830    0.539702    1.013599 Biso 1.000000  C     
 C15    1.0    0.680944    0.972514    1.013598 Biso 1.000000  C     
 C16    1.0    0.538634    0.682012    0.513599 Biso 1.000000  C     
 C17    1.0    0.971450    0.120709    0.513600 Biso 1.000000  C     
 C18    1.0    0.977332    0.687894    0.513600 Biso 1.000000  C     
 H1     1.0    0.961018    0.099640   -0.000103 Biso 1.000000  H     
 H2     1.0    0.966695    0.698325   -0.000105 Biso 1.000000  H     
 H3     1.0    0.559702    0.692650   -0.000106 Biso 1.000000  H     
 H4     1.0    0.697259    0.560769    0.499896 Biso 1.000000  H     
 H5     1.0    0.691582    0.962086    0.499895 Biso 1.000000  H     
 H6     1.0    0.098573    0.967760    0.499894 Biso 1.000000  H     
 H7     1.0    0.314011    0.366710   -0.015022 Biso 1.000000  H     
 H8     1.0    0.880771    0.345333   -0.015021 Biso 1.000000  H     
 H9     1.0    0.292635    0.778572   -0.015022 Biso 1.000000  H     
 H10    1.0    0.344268    0.293702    0.484977 Biso 1.000000  H     
 H11    1.0    0.777506    0.315076    0.484979 Biso 1.000000  H     
 H12    1.0    0.365641    0.881837    0.484978 Biso 1.000000  H     
 H13    1.0    0.217960    1.034140    1.023285 Biso 1.000000  H     
 H14    1.0    0.644251    0.441384    1.023286 Biso 1.000000  H     
 H15    1.0    0.625203    0.015092    1.023283 Biso 1.000000  H     
 H16    1.0    0.440317    0.626269    0.523282 Biso 1.000000  H     
 H17    1.0    0.014024    0.219026    0.523283 Biso 1.000000  H     
 H18    1.0    0.033073    0.645318    0.523284 Biso 1.000000  H     
 H19    1.0    0.081403    0.422346    0.690832 Biso 1.000000  H     
 H20    1.0    0.211033    0.465223    0.803277 Biso 1.000000  H     
 H21    1.0    0.217914    0.553292    0.643919 Biso 1.000000  H     
 H22    1.0    0.592162    0.204891    0.234516 Biso 1.000000  H     
 H23    1.0    0.462531    0.162016    0.122076 Biso 1.000000  H     
 H24    1.0    0.455651    0.073945    0.281430 Biso 1.000000  H     
 H25    1.0    0.138925    0.547973    0.806294 Biso 1.000000  H     
 H26    1.0    0.472261    0.214636    0.306300 Biso 1.000000  H     
 H27    1.0    0.544468    0.131960    0.800654 Biso 1.000000  H     
 H28    1.0    0.551381    0.220372    0.640754 Biso 1.000000  H     
 H29    1.0    0.414422    0.088909    0.687710 Biso 1.000000  H     
 H30    1.0    0.129044    0.495536    0.118754 Biso 1.000000  H     
 H31    1.0    0.122131    0.407123    0.278652 Biso 1.000000  H     
 H32    1.0    0.259090    0.538586    0.231698 Biso 1.000000  H     
 H33    1.0    0.472174    0.214600    0.803209 Biso 1.000000  H     
 H34    1.0    0.138837    0.547935    0.303201 Biso 1.000000  H     
 H35    1.0    0.832486    0.901947    0.209568 Biso 1.000000  H     
 H36    1.0    0.739615    0.772204    0.319726 Biso 1.000000  H     
 H37    1.0    0.892604    0.865618    0.370072 Biso 1.000000  H     
 H38    1.0    0.810655    0.791233    0.890013 Biso 1.000000  H     
 H39    1.0    0.903526    0.920977    0.779857 Biso 1.000000  H     
 H40    1.0    0.750537    0.827566    0.729511 Biso 1.000000  H     
 H41    1.0    0.852725    0.779132    0.206430 Biso 1.000000  H     
 H42    1.0    0.852724    0.779133    0.706428 Biso 1.000000  H     
 N1     1.0    0.162473    0.496873    0.735616 Biso 1.000000  N     
 N2     1.0    0.495806    0.163537    0.235616 Biso 1.000000  N     
 N3     1.0    0.495807    0.163538    0.732492 Biso 1.000000  N     
 N4     1.0    0.162472    0.496871    0.232492 Biso 1.000000  N     
 N5     1.0    0.829140    0.830207    0.277114 Biso 1.000000  N     
 N6     1.0    0.829136    0.830205    0.777114 Biso 1.000000  N     
