_cell_length_a                         12.513787
_cell_length_b                         12.513758
_cell_length_c                         8.502227
_cell_angle_alpha                      90.000000
_cell_angle_beta                       90.000061
_cell_angle_gamma                      120.000252
_space_group_IT_number                 1
 loop_
 _space_group_symop_operation_xyz 
 'x, y, z' 
 loop_ 
 _atom_site_label 
 _atom_site_occupancy 
 _atom_site_fract_x 
 _atom_site_fract_y
 _atom_site_fract_z
 _atom_site_adp_type
 _atom_site_U_iso_or_equiv
 _atom_site_type_symbol
 Fe1    1.0    0.164684    0.161966    0.755618 Biso 1.000000  Fe    
 Fe2    1.0    0.824555    0.494660    0.755619 Biso 1.000000  Fe    
 Fe3    1.0    0.497379    0.834789    0.755617 Biso 1.000000  Fe    
 Fe4    1.0    0.493060    0.498978    0.255618 Biso 1.000000  Fe    
 Fe5    1.0    0.833192    0.166284    0.255618 Biso 1.000000  Fe    
 Fe6    1.0    0.160365    0.826155    0.255617 Biso 1.000000  Fe    
 O1     1.0    0.100566    0.255993    0.901368 Biso 1.000000  O     
 O2     1.0    0.982701    0.558780    0.901368 Biso 1.000000  O     
 O3     1.0    0.403351    0.676643    0.901366 Biso 1.000000  O     
 O4     1.0    0.557180    0.404948    0.401370 Biso 1.000000  O     
 O5     1.0    0.675040    0.102163    0.401369 Biso 1.000000  O     
 O6     1.0    0.254395    0.984302    0.401370 Biso 1.000000  O     
 O7     1.0    0.988619    0.256328    0.107166 Biso 1.000000  O     
 O8     1.0    0.094981    0.670725    0.107169 Biso 1.000000  O     
 O9     1.0    0.403014    0.564363    0.107166 Biso 1.000000  O     
 O10    1.0    0.669126    0.404616    0.607171 Biso 1.000000  O     
 O11    1.0    0.562762    0.990217    0.607170 Biso 1.000000  O     
 O12    1.0    0.254727    0.096583    0.607168 Biso 1.000000  O     
 O13    1.0    0.328946    0.227006    0.898241 Biso 1.000000  O     
 O14    1.0    0.725330    0.330397    0.898243 Biso 1.000000  O     
 O15    1.0    0.432339    0.934014    0.898243 Biso 1.000000  O     
 O16    1.0    0.328792    0.433935    0.398244 Biso 1.000000  O     
 O17    1.0    0.932415    0.330549    0.398244 Biso 1.000000  O     
 O18    1.0    0.225405    0.726929    0.398244 Biso 1.000000  O     
 O19    1.0    0.427321    0.337547    0.111573 Biso 1.000000  O     
 O20    1.0    0.737497    0.232019    0.111573 Biso 1.000000  O     
 O21    1.0    0.321793    0.921845    0.111571 Biso 1.000000  O     
 O22    1.0    0.230421    0.323391    0.611576 Biso 1.000000  O     
 O23    1.0    0.920245    0.428925    0.611576 Biso 1.000000  O     
 O24    1.0    0.335952    0.739097    0.611575 Biso 1.000000  O     
 O25    1.0    0.070391    1.002130    0.900941 Biso 1.000000  O     
 O26    1.0    0.759010    0.588951    0.900942 Biso 1.000000  O     
 O27    1.0    0.657216    0.900335    0.900942 Biso 1.000000  O     
 O28    1.0    0.587355    0.658818    0.400942 Biso 1.000000  O     
 O29    1.0    0.898735    0.071990    0.400942 Biso 1.000000  O     
 O30    1.0    1.000529    0.760609    0.400940 Biso 1.000000  O     
 O31    1.0    0.062176    0.895028    0.116179 Biso 1.000000  O     
 O32    1.0    0.660125    0.597167    0.116182 Biso 1.000000  O     
 O33    1.0    0.764314   -0.000780    0.116183 Biso 1.000000  O     
 O34    1.0    0.595564    0.765915    0.616181 Biso 1.000000  O     
 O35    1.0   -0.002377    0.063779    0.616183 Biso 1.000000  O     
 O36    1.0    0.893430    0.661723    0.616182 Biso 1.000000  O     
 C1     1.0    0.014942    0.201125    0.001039 Biso 1.000000  C     
 C2     1.0    0.013456    0.644402    0.001038 Biso 1.000000  C     
 C3     1.0    0.458217    0.645888    0.001035 Biso 1.000000  C     
 C4     1.0    0.642803    0.459818    0.501039 Biso 1.000000  C     
 C5     1.0    0.644288    0.016540    0.501038 Biso 1.000000  C     
 C6     1.0    0.199524    0.015055    0.501038 Biso 1.000000  C     
 C7     1.0    0.357449    0.313748   -0.006275 Biso 1.000000  C     
 C8     1.0    0.783569    0.301893   -0.006271 Biso 1.000000  C     
 C9     1.0    0.345597    0.875775   -0.006271 Biso 1.000000  C     
 C10    1.0    0.300292    0.347192    0.493728 Biso 1.000000  C     
 C11    1.0    0.874174    0.359050    0.493727 Biso 1.000000  C     
 C12    1.0    0.312148    0.785169    0.493725 Biso 1.000000  C     
 C13    1.0    0.119376    0.980137    1.017899 Biso 1.000000  C     
 C14    1.0    0.688035    0.539968    1.017899 Biso 1.000000  C     
 C15    1.0    0.679206    0.971310    1.017897 Biso 1.000000  C     
 C16    1.0    0.538368    0.680807    0.517899 Biso 1.000000  C     
 C17    1.0    0.969712    0.120976    0.517900 Biso 1.000000  C     
 C18    1.0    0.978537    0.689632    0.517899 Biso 1.000000  C     
 H1     1.0    0.959333    0.099906   -0.002655 Biso 1.000000  H     
 H2     1.0    0.967847    0.700010   -0.002657 Biso 1.000000  H     
 H3     1.0    0.559435    0.691498   -0.002658 Biso 1.000000  H     
 H4     1.0    0.698411    0.561036    0.497344 Biso 1.000000  H     
 H5     1.0    0.689897    0.960934    0.497343 Biso 1.000000  H     
 H6     1.0    0.098307    0.969445    0.497342 Biso 1.000000  H     
 H7     1.0    0.319088    0.372320   -0.025033 Biso 1.000000  H     
 H8     1.0    0.880504    0.340256   -0.025032 Biso 1.000000  H     
 H9     1.0    0.287025    0.778838   -0.025033 Biso 1.000000  H     
 H10    1.0    0.338657    0.288625    0.474966 Biso 1.000000  H     
 H11    1.0    0.777240    0.320686    0.474968 Biso 1.000000  H     
 H12    1.0    0.370718    0.882104    0.474967 Biso 1.000000  H     
 H13    1.0    0.217693    1.039169    1.032427 Biso 1.000000  H     
 H14    1.0    0.648747    0.441651    1.032429 Biso 1.000000  H     
 H15    1.0    0.620174    0.010597    1.032425 Biso 1.000000  H     
 H16    1.0    0.440050    0.621773    0.532425 Biso 1.000000  H     
 H17    1.0    0.008995    0.219293    0.532425 Biso 1.000000  H     
 H18    1.0    0.037568    0.650347    0.532426 Biso 1.000000  H     
 H19    1.0    0.075099    0.436834    0.677697 Biso 1.000000  H     
 H20    1.0    0.206370    0.448471    0.759394 Biso 1.000000  H     
 H21    1.0    0.216346    0.565965    0.643613 Biso 1.000000  H     
 H22    1.0    0.590109    0.197342    0.209435 Biso 1.000000  H     
 H23    1.0    0.458838    0.185708    0.127744 Biso 1.000000  H     
 H24    1.0    0.448861    0.068212    0.243521 Biso 1.000000  H     
 H25    1.0    0.150708    0.538372    0.822425 Biso 1.000000  H     
 H26    1.0    0.484045    0.205033    0.322429 Biso 1.000000  H     
 H27    1.0    0.539856    0.115131    0.756733 Biso 1.000000  H     
 H28    1.0    0.549826    0.233037    0.640559 Biso 1.000000  H     
 H29    1.0    0.408121    0.103402    0.674674 Biso 1.000000  H     
 H30    1.0    0.125344    0.519252    0.124575 Biso 1.000000  H     
 H31    1.0    0.115374    0.401346    0.240747 Biso 1.000000  H     
 H32    1.0    0.257080    0.530980    0.206633 Biso 1.000000  H     
 H33    1.0    0.483974    0.205007    0.819350 Biso 1.000000  H     
 H34    1.0    0.150637    0.538344    0.319344 Biso 1.000000  H     
 H35    1.0    0.838026    0.915154    0.253831 Biso 1.000000  H     
 H36    1.0    0.740522    0.771939    0.333867 Biso 1.000000  H     
 H37    1.0    0.896961    0.843986    0.370446 Biso 1.000000  H     
 H38    1.0    0.812318    0.772231    0.884933 Biso 1.000000  H     
 H39    1.0    0.909822    0.915448    0.804900 Biso 1.000000  H     
 H40    1.0    0.753383    0.843403    0.768322 Biso 1.000000  H     
 H41    1.0    0.840403    0.789260    0.190882 Biso 1.000000  H     
 H42    1.0    0.840401    0.789261    0.690880 Biso 1.000000  H     
 N1     1.0    0.162206    0.497140    0.725143 Biso 1.000000  N     
 N2     1.0    0.495539    0.163803    0.225143 Biso 1.000000  N     
 N3     1.0    0.495540    0.163805    0.722019 Biso 1.000000  N     
 N4     1.0    0.162205    0.497138    0.222019 Biso 1.000000  N     
 N5     1.0    0.828873    0.830473    0.288171 Biso 1.000000  N     
 N6     1.0    0.828869    0.830472    0.788171 Biso 1.000000  N     
