_cell_length_a                         12.513787
_cell_length_b                         12.513758
_cell_length_c                         8.502227
_cell_angle_alpha                      90.000000
_cell_angle_beta                       90.000061
_cell_angle_gamma                      120.000252
_space_group_IT_number                 1
 loop_
 _space_group_symop_operation_xyz 
 'x, y, z' 
 loop_ 
 _atom_site_label 
 _atom_site_occupancy 
 _atom_site_fract_x 
 _atom_site_fract_y
 _atom_site_fract_z
 _atom_site_adp_type
 _atom_site_U_iso_or_equiv
 _atom_site_type_symbol
 Fe1    1.0    0.161060    0.165590    0.753970 Biso 1.000000  Fe    
 Fe2    1.0    0.838201    0.498285    0.753971 Biso 1.000000  Fe    
 Fe3    1.0    0.493754    0.821143    0.753969 Biso 1.000000  Fe    
 Fe4    1.0    0.500951    0.491087    0.253970 Biso 1.000000  Fe    
 Fe5    1.0    0.823809    0.158392    0.253971 Biso 1.000000  Fe    
 Fe6    1.0    0.168257    0.835538    0.253970 Biso 1.000000  Fe    
 O1     1.0    0.095255    0.254305    0.903320 Biso 1.000000  O     
 O2     1.0    0.992722    0.564090    0.903317 Biso 1.000000  O     
 O3     1.0    0.405038    0.666621    0.903316 Biso 1.000000  O     
 O4     1.0    0.566757    0.402369    0.403322 Biso 1.000000  O     
 O5     1.0    0.669286    0.092587    0.403319 Biso 1.000000  O     
 O6     1.0    0.256972    0.990058    0.403322 Biso 1.000000  O     
 O7     1.0    0.982863    0.253751    0.109118 Biso 1.000000  O     
 O8     1.0    0.104557    0.676479    0.109119 Biso 1.000000  O     
 O9     1.0    0.405593    0.554786    0.109118 Biso 1.000000  O     
 O10    1.0    0.679148    0.402929    0.609121 Biso 1.000000  O     
 O11    1.0    0.557452    0.980196    0.609119 Biso 1.000000  O     
 O12    1.0    0.256415    0.101894    0.609120 Biso 1.000000  O     
 O13    1.0    0.321540    0.231559    0.898485 Biso 1.000000  O     
 O14    1.0    0.743686    0.337804    0.898486 Biso 1.000000  O     
 O15    1.0    0.427787    0.915656    0.898485 Biso 1.000000  O     
 O16    1.0    0.340465    0.425117    0.398488 Biso 1.000000  O     
 O17    1.0    0.918322    0.318875    0.398490 Biso 1.000000  O     
 O18    1.0    0.234224    0.741020    0.398488 Biso 1.000000  O     
 O19    1.0    0.436139    0.325874    0.111817 Biso 1.000000  O     
 O20    1.0    0.723406    0.223200    0.111817 Biso 1.000000  O     
 O21    1.0    0.333467    0.935938    0.111817 Biso 1.000000  O     
 O22    1.0    0.225868    0.330797    0.611820 Biso 1.000000  O     
 O23    1.0    0.938603    0.433477    0.611818 Biso 1.000000  O     
 O24    1.0    0.328545    0.720741    0.611818 Biso 1.000000  O     
 O25    1.0    0.061575    0.996121    0.891442 Biso 1.000000  O     
 O26    1.0    0.768217    0.597768    0.891445 Biso 1.000000  O     
 O27    1.0    0.663225    0.891128    0.891444 Biso 1.000000  O     
 O28    1.0    0.600438    0.660561    0.391443 Biso 1.000000  O     
 O29    1.0    0.893792    0.058905    0.391448 Biso 1.000000  O     
 O30    1.0    0.998784    0.765549    0.391442 Biso 1.000000  O     
 O31    1.0    0.075261    0.899971    0.106685 Biso 1.000000  O     
 O32    1.0    0.658382    0.584084    0.106683 Biso 1.000000  O     
 O33    1.0    0.759374    0.000965    0.106685 Biso 1.000000  O     
 O34    1.0    0.586747    0.756708    0.606684 Biso 1.000000  O     
 O35    1.0    0.003632    0.072595    0.606684 Biso 1.000000  O     
 O36    1.0    0.902637    0.655714    0.606684 Biso 1.000000  O     
 C1     1.0    0.015093    0.198991    0.011603 Biso 1.000000  C     
 C2     1.0    0.017568    0.644250    0.011603 Biso 1.000000  C     
 C3     1.0    0.460351    0.641774    0.011603 Biso 1.000000  C     
 C4     1.0    0.646917    0.457684    0.511607 Biso 1.000000  C     
 C5     1.0    0.644440    0.012428    0.511603 Biso 1.000000  C     
 C6     1.0    0.201658    0.014904    0.511602 Biso 1.000000  C     
 C7     1.0    0.343773    0.295807    0.023788 Biso 1.000000  C     
 C8     1.0    0.785703    0.315567    0.023790 Biso 1.000000  C     
 C9     1.0    0.363535    0.873640    0.023788 Biso 1.000000  C     
 C10    1.0    0.318233    0.360868    0.523791 Biso 1.000000  C     
 C11    1.0    0.876309    0.341112    0.523786 Biso 1.000000  C     
 C12    1.0    0.298474    0.783035    0.523786 Biso 1.000000  C     
 C13    1.0    0.121509    0.966237    0.983501 Biso 1.000000  C     
 C14    1.0    0.678398    0.537834    0.983502 Biso 1.000000  C     
 C15    1.0    0.693107    0.980946    0.983502 Biso 1.000000  C     
 C16    1.0    0.540502    0.690444    0.483502 Biso 1.000000  C     
 C17    1.0    0.983612    0.118843    0.483502 Biso 1.000000  C     
 C18    1.0    0.968901    0.675731    0.483504 Biso 1.000000  C     
 H1     1.0    0.972816    0.097774    0.017763 Biso 1.000000  H     
 H2     1.0    0.958630    0.686526    0.017762 Biso 1.000000  H     
 H3     1.0    0.561569    0.700716    0.017761 Biso 1.000000  H     
 H4     1.0    0.689193    0.558902    0.517763 Biso 1.000000  H     
 H5     1.0    0.703381    0.970151    0.517762 Biso 1.000000  H     
 H6     1.0    0.100439    0.955962    0.517760 Biso 1.000000  H     
 H7     1.0    0.278470    0.327436    0.055056 Biso 1.000000  H     
 H8     1.0    0.882637    0.380872    0.055054 Biso 1.000000  H     
 H9     1.0    0.331907    0.776707    0.055053 Biso 1.000000  H     
 H10    1.0    0.383541    0.329243    0.555055 Biso 1.000000  H     
 H11    1.0    0.779371    0.275804    0.555054 Biso 1.000000  H     
 H12    1.0    0.330102    0.879971    0.555053 Biso 1.000000  H     
 H13    1.0    0.219826    0.998937    0.959291 Biso 1.000000  H     
 H14    1.0    0.612782    0.439517    0.959291 Biso 1.000000  H     
 H15    1.0    0.660404    0.046559    0.959290 Biso 1.000000  H     
 H16    1.0    0.442184    0.657738    0.459287 Biso 1.000000  H     
 H17    1.0    0.049227    0.217160    0.459289 Biso 1.000000  H     
 H18    1.0    0.001606    0.610117    0.459291 Biso 1.000000  H     
 H19    1.0    0.138070    0.405781    0.847956 Biso 1.000000  H     
 H20    1.0    0.101384    0.521272    0.847955 Biso 1.000000  H     
 H21    1.0    0.253561    0.557966    0.847956 Biso 1.000000  H     
 H22    1.0    0.523941    0.250897    0.347956 Biso 1.000000  H     
 H23    1.0    0.560626    0.135406    0.347956 Biso 1.000000  H     
 H24    1.0    0.408449    0.098712    0.347956 Biso 1.000000  H     
 H25    1.0    0.164340    0.495005    0.688676 Biso 1.000000  H     
 H26    1.0    0.497670    0.161673    0.188677 Biso 1.000000  H     
 H27    1.0    0.434437    0.187963    0.844571 Biso 1.000000  H     
 H28    1.0    0.587191    0.224899    0.844575 Biso 1.000000  H     
 H29    1.0    0.471385    0.072156    0.844574 Biso 1.000000  H     
 H30    1.0    0.227573    0.468715    0.344572 Biso 1.000000  H     
 H31    1.0    0.074819    0.431778    0.344574 Biso 1.000000  H     
 H32    1.0    0.190624    0.584522    0.344575 Biso 1.000000  H     
 H33    1.0    0.497671    0.161673    0.685499 Biso 1.000000  H     
 H34    1.0    0.164339    0.495005    0.185499 Biso 1.000000  H     
 H35    1.0    0.920867    0.856525    0.161138 Biso 1.000000  H     
 H36    1.0    0.769329    0.738473    0.161135 Biso 1.000000  H     
 H37    1.0    0.802818    0.890012    0.161134 Biso 1.000000  H     
 H38    1.0    0.741141    0.800151    0.661136 Biso 1.000000  H     
 H39    1.0    0.892679    0.918203    0.661136 Biso 1.000000  H     
 H40    1.0    0.859192    0.766665    0.661134 Biso 1.000000  H     
 H41    1.0    0.831003    0.828340    0.319974 Biso 1.000000  H     
 H42    1.0    0.831005    0.828338    0.819974 Biso 1.000000  H     
 N1     1.0    0.164339    0.495006    0.808926 Biso 1.000000  N     
 N2     1.0    0.497672    0.161672    0.308926 Biso 1.000000  N     
 N3     1.0    0.497674    0.161673    0.805803 Biso 1.000000  N     
 N4     1.0    0.164337    0.495005    0.305803 Biso 1.000000  N     
 N5     1.0    0.831005    0.828341    0.199716 Biso 1.000000  N     
 N6     1.0    0.831004    0.828336    0.699716 Biso 1.000000  N     
