_cell_length_a                         12.513787
_cell_length_b                         12.513758
_cell_length_c                         8.502227
_cell_angle_alpha                      90.000000
_cell_angle_beta                       90.000061
_cell_angle_gamma                      120.000252
_space_group_IT_number                 1
 loop_
 _space_group_symop_operation_xyz 
 'x, y, z' 
 loop_ 
 _atom_site_label 
 _atom_site_occupancy 
 _atom_site_fract_x 
 _atom_site_fract_y
 _atom_site_fract_z
 _atom_site_adp_type
 _atom_site_U_iso_or_equiv
 _atom_site_type_symbol
 Fe1    1.0    0.162419    0.164231    0.754588 Biso 1.000000  Fe    
 Fe2    1.0    0.833084    0.496926    0.754589 Biso 1.000000  Fe    
 Fe3    1.0    0.495113    0.826260    0.754587 Biso 1.000000  Fe    
 Fe4    1.0    0.497992    0.494046    0.254588 Biso 1.000000  Fe    
 Fe5    1.0    0.827328    0.161352    0.254589 Biso 1.000000  Fe    
 Fe6    1.0    0.165297    0.832019    0.254588 Biso 1.000000  Fe    
 O1     1.0    0.097247    0.254938    0.902588 Biso 1.000000  O     
 O2     1.0    0.988964    0.562099    0.902586 Biso 1.000000  O     
 O3     1.0    0.404405    0.670379    0.902585 Biso 1.000000  O     
 O4     1.0    0.563166    0.403336    0.402590 Biso 1.000000  O     
 O5     1.0    0.671444    0.096178    0.402588 Biso 1.000000  O     
 O6     1.0    0.256006    0.987900    0.402590 Biso 1.000000  O     
 O7     1.0    0.985021    0.254717    0.108386 Biso 1.000000  O     
 O8     1.0    0.100966    0.674321    0.108388 Biso 1.000000  O     
 O9     1.0    0.404626    0.558377    0.108386 Biso 1.000000  O     
 O10    1.0    0.675390    0.403562    0.608390 Biso 1.000000  O     
 O11    1.0    0.559443    0.983954    0.608388 Biso 1.000000  O     
 O12    1.0    0.255782    0.099902    0.608388 Biso 1.000000  O     
 O13    1.0    0.324317    0.229852    0.898393 Biso 1.000000  O     
 O14    1.0    0.736802    0.335026    0.898395 Biso 1.000000  O     
 O15    1.0    0.429494    0.922540    0.898394 Biso 1.000000  O     
 O16    1.0    0.336088    0.428424    0.398396 Biso 1.000000  O     
 O17    1.0    0.923607    0.323253    0.398398 Biso 1.000000  O     
 O18    1.0    0.230917    0.735736    0.398396 Biso 1.000000  O     
 O19    1.0    0.432832    0.330251    0.111726 Biso 1.000000  O     
 O20    1.0    0.728690    0.226507    0.111726 Biso 1.000000  O     
 O21    1.0    0.329089    0.930653    0.111725 Biso 1.000000  O     
 O22    1.0    0.227575    0.328020    0.611729 Biso 1.000000  O     
 O23    1.0    0.931719    0.431770    0.611727 Biso 1.000000  O     
 O24    1.0    0.331323    0.727625    0.611727 Biso 1.000000  O     
 O25    1.0    0.064881    0.998374    0.895004 Biso 1.000000  O     
 O26    1.0    0.764764    0.594462    0.895006 Biso 1.000000  O     
 O27    1.0    0.660972    0.894581    0.895006 Biso 1.000000  O     
 O28    1.0    0.595532    0.659907    0.395005 Biso 1.000000  O     
 O29    1.0    0.895646    0.063812    0.395008 Biso 1.000000  O     
 O30    1.0    0.999438    0.763697    0.395004 Biso 1.000000  O     
 O31    1.0    0.070354    0.898117    0.110245 Biso 1.000000  O     
 O32    1.0    0.659036    0.588990    0.110245 Biso 1.000000  O     
 O33    1.0    0.761227    0.000311    0.110247 Biso 1.000000  O     
 O34    1.0    0.590053    0.760161    0.610245 Biso 1.000000  O     
 O35    1.0    0.001379    0.069289    0.610246 Biso 1.000000  O     
 O36    1.0    0.899184    0.657967    0.610246 Biso 1.000000  O     
 C1     1.0    0.015036    0.199791    0.007641 Biso 1.000000  C     
 C2     1.0    0.016026    0.644307    0.007641 Biso 1.000000  C     
 C3     1.0    0.459551    0.643317    0.007640 Biso 1.000000  C     
 C4     1.0    0.645374    0.458484    0.507644 Biso 1.000000  C     
 C5     1.0    0.644383    0.013970    0.507641 Biso 1.000000  C     
 C6     1.0    0.200858    0.014961    0.507640 Biso 1.000000  C     
 C7     1.0    0.348901    0.302535    0.012514 Biso 1.000000  C     
 C8     1.0    0.784903    0.310439    0.012517 Biso 1.000000  C     
 C9     1.0    0.356808    0.874441    0.012516 Biso 1.000000  C     
 C10    1.0    0.311505    0.355739    0.512517 Biso 1.000000  C     
 C11    1.0    0.875508    0.347839    0.512514 Biso 1.000000  C     
 C12    1.0    0.303602    0.783835    0.512513 Biso 1.000000  C     
 C13    1.0    0.120709    0.971450    0.996400 Biso 1.000000  C     
 C14    1.0    0.682012    0.538634    0.996401 Biso 1.000000  C     
 C15    1.0    0.687894    0.977332    0.996400 Biso 1.000000  C     
 C16    1.0    0.539702    0.686830    0.496401 Biso 1.000000  C     
 C17    1.0    0.978400    0.119643    0.496401 Biso 1.000000  C     
 C18    1.0    0.972514    0.680944    0.496402 Biso 1.000000  C     
 H1     1.0    0.967760    0.098573    0.010106 Biso 1.000000  H     
 H2     1.0    0.962086    0.691582    0.010105 Biso 1.000000  H     
 H3     1.0    0.560769    0.697259    0.010104 Biso 1.000000  H     
 H4     1.0    0.692650    0.559702    0.510106 Biso 1.000000  H     
 H5     1.0    0.698325    0.966695    0.510105 Biso 1.000000  H     
 H6     1.0    0.099640    0.961018    0.510103 Biso 1.000000  H     
 H7     1.0    0.293702    0.344268    0.025023 Biso 1.000000  H     
 H8     1.0    0.881837    0.365641    0.025022 Biso 1.000000  H     
 H9     1.0    0.315076    0.777506    0.025021 Biso 1.000000  H     
 H10    1.0    0.366710    0.314011    0.525022 Biso 1.000000  H     
 H11    1.0    0.778572    0.292635    0.525022 Biso 1.000000  H     
 H12    1.0    0.345333    0.880771    0.525021 Biso 1.000000  H     
 H13    1.0    0.219026    1.014024    0.986717 Biso 1.000000  H     
 H14    1.0    0.626269    0.440317    0.986718 Biso 1.000000  H     
 H15    1.0    0.645318    0.033073    0.986716 Biso 1.000000  H     
 H16    1.0    0.441384    0.644251    0.486714 Biso 1.000000  H     
 H17    1.0    0.034140    0.217960    0.486715 Biso 1.000000  H     
 H18    1.0    0.015092    0.625203    0.486717 Biso 1.000000  H     
 H19    1.0    0.122120    0.399444    0.778607 Biso 1.000000  H     
 H20    1.0    0.165088    0.529094    0.891049 Biso 1.000000  H     
 H21    1.0    0.253127    0.535901    0.731695 Biso 1.000000  H     
 H22    1.0    0.571437    0.243512    0.322292 Biso 1.000000  H     
 H23    1.0    0.528467    0.113863    0.209850 Biso 1.000000  H     
 H24    1.0    0.440430    0.107055    0.369205 Biso 1.000000  H     
 H25    1.0    0.112483    0.519406    0.706824 Biso 1.000000  H     
 H26    1.0    0.445816    0.186074    0.206831 Biso 1.000000  H     
 H27    1.0    0.498180    0.195888    0.888123 Biso 1.000000  H     
 H28    1.0    0.586625    0.202873    0.728226 Biso 1.000000  H     
 H29    1.0    0.455224    0.065860    0.775181 Biso 1.000000  H     
 H30    1.0    0.195172    0.447192    0.206224 Biso 1.000000  H     
 H31    1.0    0.106728    0.440205    0.366122 Biso 1.000000  H     
 H32    1.0    0.238129    0.577219    0.319169 Biso 1.000000  H     
 H33    1.0    0.445768    0.186052    0.703676 Biso 1.000000  H     
 H34    1.0    0.112434    0.519383    0.203669 Biso 1.000000  H     
 H35    1.0    0.869176    0.847620    0.119989 Biso 1.000000  H     
 H36    1.0    0.739431    0.754750    0.230143 Biso 1.000000  H     
 H37    1.0    0.832844    0.907740    0.280488 Biso 1.000000  H     
 H38    1.0    0.758461    0.825790    0.800431 Biso 1.000000  H     
 H39    1.0    0.888205    0.918661    0.690275 Biso 1.000000  H     
 H40    1.0    0.794791    0.765672    0.639927 Biso 1.000000  H     
 H41    1.0    0.881276    0.805553    0.303574 Biso 1.000000  H     
 H42    1.0    0.881277    0.805552    0.803572 Biso 1.000000  H     
 N1     1.0    0.163540    0.495806    0.777508 Biso 1.000000  N     
 N2     1.0    0.496873    0.162471    0.277508 Biso 1.000000  N     
 N3     1.0    0.496875    0.162472    0.774385 Biso 1.000000  N     
 N4     1.0    0.163539    0.495805    0.274385 Biso 1.000000  N     
 N5     1.0    0.830204    0.829141    0.232886 Biso 1.000000  N     
 N6     1.0    0.830202    0.829137    0.732886 Biso 1.000000  N     
