_cell_length_a     8.1181
_cell_length_b    11.7335
_cell_length_c     8.8220
_cell_angle_alpha 90.0
_cell_angle_beta 90.0
_cell_angle_gamma 90.0
_space_group_IT_number                 1
 loop_
 _space_group_symop_operation_xyz 
 'x, y, z' 
 loop_ 
 _atom_site_label 
 _atom_site_occupancy 
 _atom_site_fract_x 
 _atom_site_fract_y
 _atom_site_fract_z
 _atom_site_adp_type
 _atom_site_U_iso_or_equiv
 _atom_site_type_symbol
 Mg1    1.0    0.750500    0.500000    0.250000 Biso 1.000000  Mg    
 Mg2    1.0    0.750500    0.000000    0.250000 Biso 1.000000  Mg    
 Mg3    1.0    0.250500    0.000000    0.750000 Biso 1.000000  Mg    
 Mg4    1.0    0.250500    0.500000    0.750000 Biso 1.000000  Mg    
 O1     1.0    0.958058    0.437518    0.346556 Biso 1.000000  O     
 O2     1.0    0.542942    0.937518    0.153444 Biso 1.000000  O     
 O3     1.0    0.042942    0.937518    0.846556 Biso 1.000000  O     
 O4     1.0    0.458058    0.437518    0.653444 Biso 1.000000  O     
 O5     1.0    0.138016    0.437389    0.542849 Biso 1.000000  O     
 O6     1.0    0.362984    0.937389    0.957151 Biso 1.000000  O     
 O7     1.0    0.862985    0.937389    0.042849 Biso 1.000000  O     
 O8     1.0    0.638016    0.437389    0.457151 Biso 1.000000  O     
 O9     1.0    0.862985    0.562611    0.042849 Biso 1.000000  O     
 O10    1.0    0.638015    0.062611    0.457151 Biso 1.000000  O     
 O11    1.0    0.138016    0.062611    0.542849 Biso 1.000000  O     
 O12    1.0    0.362985    0.562611    0.957151 Biso 1.000000  O     
 O13    1.0    0.042942    0.562482    0.846556 Biso 1.000000  O     
 O14    1.0    0.458058    0.062482    0.653444 Biso 1.000000  O     
 O15    1.0   -0.041942    0.062482    0.346556 Biso 1.000000  O     
 O16    1.0    0.542942    0.562482    0.153444 Biso 1.000000  O     
 O17    1.0    0.724136    0.343596    0.127768 Biso 1.000000  O     
 O18    1.0    0.776865    0.843596    0.372232 Biso 1.000000  O     
 O19    1.0    0.276865    0.843596    0.627768 Biso 1.000000  O     
 O20    1.0    0.224135    0.343596    0.872232 Biso 1.000000  O     
 O21    1.0    0.724136    0.156404    0.127768 Biso 1.000000  O     
 O22    1.0    0.776865    0.656404    0.372232 Biso 1.000000  O     
 O23    1.0    0.276865    0.656404    0.627768 Biso 1.000000  O     
 O24    1.0    0.224136    0.156404    0.872232 Biso 1.000000  O     
 C1     1.0    1.019832    0.476189    0.476740 Biso 1.000000  C     
 C2     1.0    0.481168    0.976189    0.023260 Biso 1.000000  C     
 C3     1.0   -0.018832    0.976189    0.976740 Biso 1.000000  C     
 C4     1.0    0.519832    0.476189    0.523260 Biso 1.000000  C     
 C5     1.0    0.981168    0.523811    0.976740 Biso 1.000000  C     
 C6     1.0    0.519832    0.023811    0.523260 Biso 1.000000  C     
 C7     1.0    0.019832    0.023811    0.476740 Biso 1.000000  C     
 C8     1.0    0.481168    0.523811    0.023260 Biso 1.000000  C     
 C9     1.0    0.738812    0.250000    0.198512 Biso 1.000000  C     
 C10    1.0    0.762188    0.750000    0.301488 Biso 1.000000  C     
 C11    1.0    0.262188    0.750000    0.698512 Biso 1.000000  C     
 C12    1.0    0.238812    0.250000    0.801488 Biso 1.000000  C     
 C13    1.0    0.260323    0.232411    0.314072 Biso 1.000000  C     
 C14    1.0    0.241026    0.732411    0.185928 Biso 1.000000  C     
 C15    1.0    0.740677    0.732411    0.814072 Biso 1.000000  C     
 C16    1.0    0.760640    0.232495    0.685773 Biso 1.000000  C     
 C17    1.0    0.402897    0.215270    0.213077 Biso 1.000000  C     
 C18    1.0    0.098452    0.715270    0.286923 Biso 1.000000  C     
 C19    1.0    0.598103    0.715270    0.713077 Biso 1.000000  C     
 C20    1.0    0.903214    0.215354    0.786767 Biso 1.000000  C     
 H1     1.0    0.963634    0.549361    0.533592 Biso 1.000000  H     
 H2     1.0    0.537365    0.049361    0.966408 Biso 1.000000  H     
 H3     1.0    0.037366    0.049361    0.033592 Biso 1.000000  H     
 H4     1.0    0.463635    0.549361    0.466408 Biso 1.000000  H     
 H5     1.0    0.037365    0.450639    0.033592 Biso 1.000000  H     
 H6     1.0    0.463635    0.950639    0.466408 Biso 1.000000  H     
 H7     1.0   -0.036365    0.950639    0.533592 Biso 1.000000  H     
 H8     1.0    0.537366    0.450639    0.966408 Biso 1.000000  H     
 H9     1.0    0.766264    0.250000    0.331218 Biso 1.000000  H     
 H10    1.0    0.734736    0.750000    0.168782 Biso 1.000000  H     
 H11    1.0    0.234736    0.750000    0.831218 Biso 1.000000  H     
 H12    1.0    0.266264    0.250000    0.668782 Biso 1.000000  H     
 H13    1.0    0.267127    0.310673    0.381377 Biso 1.000000  H     
 H14    1.0    0.234222    0.810673    0.118623 Biso 1.000000  H     
 H15    1.0    0.733873    0.810673    0.881377 Biso 1.000000  H     
 H16    1.0    0.767445    0.310758    0.618467 Biso 1.000000  H     
 H17    1.0    0.239228    0.154399    0.396800 Biso 1.000000  H     
 H18    1.0    0.262121    0.654399    0.103200 Biso 1.000000  H     
 H19    1.0    0.761772    0.654399    0.896800 Biso 1.000000  H     
 H20    1.0    0.739545    0.154483    0.603044 Biso 1.000000  H     
 H21    1.0    0.390829    0.140583    0.140567 Biso 1.000000  H     
 H22    1.0    0.110520    0.640583    0.359433 Biso 1.000000  H     
 H23    1.0    0.610171    0.640583    0.640567 Biso 1.000000  H     
 H24    1.0    0.891146    0.140668    0.859277 Biso 1.000000  H     
 H25    1.0    0.498957    0.192401    0.288223 Biso 1.000000  H     
 H26    1.0    0.002392    0.692401    0.211777 Biso 1.000000  H     
 H27    1.0    0.502043    0.692401    0.788223 Biso 1.000000  H     
 H28    1.0    0.999274    0.192485    0.711621 Biso 1.000000  H     
 H29    1.0    0.429438    0.296074    0.136811 Biso 1.000000  H     
 H30    1.0    0.071911    0.796074    0.363189 Biso 1.000000  H     
 H31    1.0    0.571562    0.796074    0.636811 Biso 1.000000  H     
 H32    1.0    0.929755    0.296159    0.863033 Biso 1.000000  H     
 H33    1.0    0.129613    0.330579    0.148997 Biso 1.000000  H     
 H34    1.0    0.371736    0.830579    0.351003 Biso 1.000000  H     
 H35    1.0    0.871387    0.830579    0.648997 Biso 1.000000  H     
 H36    1.0    0.629930    0.330664    0.850847 Biso 1.000000  H     
 H37    1.0    0.022599    0.254485    0.294049 Biso 1.000000  H     
 H38    1.0    0.478750    0.754485    0.205951 Biso 1.000000  H     
 H39    1.0    0.978401    0.754485    0.794049 Biso 1.000000  H     
 H40    1.0    0.522916    0.254569    0.705796 Biso 1.000000  H     
 H41    1.0    0.109651    0.177308    0.152921 Biso 1.000000  H     
 H42    1.0    0.391698    0.677308    0.347079 Biso 1.000000  H     
 H43    1.0    0.891349    0.677308    0.652921 Biso 1.000000  H     
 H44    1.0    0.609968    0.177393    0.846923 Biso 1.000000  H     
 N1     1.0    0.120897    0.250551    0.219481 Biso 1.000000  N     
 N2     1.0    0.380452    0.750551    0.280519 Biso 1.000000  N     
 N3     1.0    0.880103    0.750551    0.719481 Biso 1.000000  N     
 N4     1.0    0.621214    0.250636    0.780363 Biso 1.000000  N     
