_cell_length_a     8.1181
_cell_length_b    11.7335
_cell_length_c     8.8220
_cell_angle_alpha 90.0
_cell_angle_beta 90.0
_cell_angle_gamma 90.0
_space_group_IT_number                 1
 loop_
 _space_group_symop_operation_xyz 
 'x, y, z' 
 loop_ 
 _atom_site_label 
 _atom_site_occupancy 
 _atom_site_fract_x 
 _atom_site_fract_y
 _atom_site_fract_z
 _atom_site_adp_type
 _atom_site_U_iso_or_equiv
 _atom_site_type_symbol
 Mg1    1.0    0.744093    0.501251    0.248779 Biso 1.000000  Mg    
 Mg2    1.0    0.772907    0.001251    0.251221 Biso 1.000000  Mg    
 Mg3    1.0    0.272907    0.001251    0.748779 Biso 1.000000  Mg    
 Mg4    1.0    0.244093    0.501251    0.751221 Biso 1.000000  Mg    
 O1     1.0    0.952353    0.439657    0.346548 Biso 1.000000  O     
 O2     1.0    0.564647    0.939657    0.153452 Biso 1.000000  O     
 O3     1.0    0.064647    0.939657    0.846548 Biso 1.000000  O     
 O4     1.0    0.452353    0.439657    0.653452 Biso 1.000000  O     
 O5     1.0    0.130542    0.439074    0.544637 Biso 1.000000  O     
 O6     1.0    0.386458    0.939074    0.955363 Biso 1.000000  O     
 O7     1.0    0.886458    0.939074    0.044637 Biso 1.000000  O     
 O8     1.0    0.630542    0.439074    0.455363 Biso 1.000000  O     
 O9     1.0    0.855511    0.564296    0.041061 Biso 1.000000  O     
 O10    1.0    0.661489    0.064296    0.458939 Biso 1.000000  O     
 O11    1.0    0.161489    0.064296    0.541061 Biso 1.000000  O     
 O12    1.0    0.355511    0.564296    0.958939 Biso 1.000000  O     
 O13    1.0    0.037237    0.564621    0.846563 Biso 1.000000  O     
 O14    1.0    0.479763    0.064621    0.653437 Biso 1.000000  O     
 O15    1.0   -0.020237    0.064621    0.346563 Biso 1.000000  O     
 O16    1.0    0.537237    0.564621    0.153437 Biso 1.000000  O     
 O17    1.0    0.721510    0.343792    0.126388 Biso 1.000000  O     
 O18    1.0    0.795490    0.843792    0.373612 Biso 1.000000  O     
 O19    1.0    0.295490    0.843792    0.626388 Biso 1.000000  O     
 O20    1.0    0.221510    0.343792    0.873612 Biso 1.000000  O     
 O21    1.0    0.742761    0.156600    0.129148 Biso 1.000000  O     
 O22    1.0    0.774239    0.656600    0.370852 Biso 1.000000  O     
 O23    1.0    0.274239    0.656600    0.629148 Biso 1.000000  O     
 O24    1.0    0.242761    0.156600    0.870852 Biso 1.000000  O     
 C1     1.0    1.010780    0.476348    0.479889 Biso 1.000000  C     
 C2     1.0    0.506220    0.976348    0.020111 Biso 1.000000  C     
 C3     1.0    0.006220    0.976348    0.979889 Biso 1.000000  C     
 C4     1.0    0.510780    0.476348    0.520111 Biso 1.000000  C     
 C5     1.0    0.972116    0.523970    0.973591 Biso 1.000000  C     
 C6     1.0    0.544884    0.023970    0.526409 Biso 1.000000  C     
 C7     1.0    0.044884    0.023970    0.473591 Biso 1.000000  C     
 C8     1.0    0.472116    0.523970    0.026409 Biso 1.000000  C     
 C9     1.0    0.746812    0.251383    0.198512 Biso 1.000000  C     
 C10    1.0    0.770188    0.751383    0.301488 Biso 1.000000  C     
 C11    1.0    0.270188    0.751383    0.698512 Biso 1.000000  C     
 C12    1.0    0.246812    0.251383    0.801488 Biso 1.000000  C     
 C13    1.0    0.270649    0.253963    0.313833 Biso 1.000000  C     
 C14    1.0    0.246561    0.753963    0.186167 Biso 1.000000  C     
 C15    1.0    0.746351    0.753963    0.813833 Biso 1.000000  C     
 C16    1.0    0.770847    0.254015    0.686073 Biso 1.000000  C     
 C17    1.0    0.400872    0.197552    0.224706 Biso 1.000000  C     
 C18    1.0    0.116337    0.697552    0.275294 Biso 1.000000  C     
 C19    1.0    0.616128    0.697552    0.724706 Biso 1.000000  C     
 C20    1.0    0.901070    0.197604    0.775199 Biso 1.000000  C     
 H1     1.0    0.949886    0.545896    0.540930 Biso 1.000000  H     
 H2     1.0    0.567114    0.045896    0.959070 Biso 1.000000  H     
 H3     1.0    0.067114    0.045896    0.040930 Biso 1.000000  H     
 H4     1.0    0.449886    0.545896    0.459070 Biso 1.000000  H     
 H5     1.0    0.023617    0.447174    0.026254 Biso 1.000000  H     
 H6     1.0    0.493383    0.947174    0.473746 Biso 1.000000  H     
 H7     1.0   -0.006617    0.947174    0.526254 Biso 1.000000  H     
 H8     1.0    0.523617    0.447174    0.973746 Biso 1.000000  H     
 H9     1.0    0.774264    0.254150    0.331218 Biso 1.000000  H     
 H10    1.0    0.742736    0.754150    0.168782 Biso 1.000000  H     
 H11    1.0    0.242736    0.754150    0.831218 Biso 1.000000  H     
 H12    1.0    0.274264    0.254150    0.668782 Biso 1.000000  H     
 H13    1.0    0.297055    0.343310    0.340144 Biso 1.000000  H     
 H14    1.0    0.220154    0.843310    0.159856 Biso 1.000000  H     
 H15    1.0    0.719945    0.843310    0.840144 Biso 1.000000  H     
 H16    1.0    0.797253    0.343362    0.659762 Biso 1.000000  H     
 H17    1.0    0.241466    0.205196    0.428106 Biso 1.000000  H     
 H18    1.0    0.275744    0.705196    0.071894 Biso 1.000000  H     
 H19    1.0    0.775534    0.705196    0.928106 Biso 1.000000  H     
 H20    1.0    0.741663    0.205248    0.571800 Biso 1.000000  H     
 H21    1.0    0.369534    0.110699    0.191949 Biso 1.000000  H     
 H22    1.0    0.147676    0.610699    0.308051 Biso 1.000000  H     
 H23    1.0    0.647466    0.610699    0.691949 Biso 1.000000  H     
 H24    1.0    0.869732    0.110751    0.807957 Biso 1.000000  H     
 H25    1.0    0.497294    0.186185    0.303982 Biso 1.000000  H     
 H26    1.0    0.019915    0.686185    0.196018 Biso 1.000000  H     
 H27    1.0    0.519706    0.686185    0.803982 Biso 1.000000  H     
 H28    1.0    0.997492    0.186237    0.695924 Biso 1.000000  H     
 H29    1.0    0.436451    0.250037    0.115079 Biso 1.000000  H     
 H30    1.0    0.080758    0.750037    0.384921 Biso 1.000000  H     
 H31    1.0    0.580549    0.750037    0.615079 Biso 1.000000  H     
 H32    1.0    0.936649    0.250089    0.884827 Biso 1.000000  H     
 H33    1.0    0.147219    0.315314    0.115831 Biso 1.000000  H     
 H34    1.0    0.369990    0.815314    0.384169 Biso 1.000000  H     
 H35    1.0    0.869781    0.815314    0.615831 Biso 1.000000  H     
 H36    1.0    0.647417    0.315366    0.884075 Biso 1.000000  H     
 H37    1.0    0.038100    0.293121    0.289111 Biso 1.000000  H     
 H38    1.0    0.479110    0.793121    0.210889 Biso 1.000000  H     
 H39    1.0    0.978900    0.793121    0.789111 Biso 1.000000  H     
 H40    1.0    0.538298    0.293173    0.710795 Biso 1.000000  H     
 H41    1.0    0.099174    0.176205    0.191481 Biso 1.000000  H     
 H42    1.0    0.418036    0.676205    0.308519 Biso 1.000000  H     
 H43    1.0    0.917826    0.676205    0.691481 Biso 1.000000  H     
 H44    1.0    0.599372    0.176257    0.808425 Biso 1.000000  H     
 N1     1.0    0.128981    0.260258    0.219358 Biso 1.000000  N     
 N2     1.0    0.388228    0.760258    0.280642 Biso 1.000000  N     
 N3     1.0    0.888019    0.760258    0.719358 Biso 1.000000  N     
 N4     1.0    0.629179    0.260310    0.780548 Biso 1.000000  N     
