_cell_length_a     8.1181
_cell_length_b    11.7335
_cell_length_c     8.8220
_cell_angle_alpha 90.0
_cell_angle_beta 90.0
_cell_angle_gamma 90.0
_space_group_IT_number                 1
 loop_
 _space_group_symop_operation_xyz 
 'x, y, z' 
 loop_ 
 _atom_site_label 
 _atom_site_occupancy 
 _atom_site_fract_x 
 _atom_site_fract_y
 _atom_site_fract_z
 _atom_site_adp_type
 _atom_site_U_iso_or_equiv
 _atom_site_type_symbol
 Mg1    1.0    0.766518    0.496873    0.253053 Biso 1.000000  Mg    
 Mg2    1.0    0.694482   -0.003127    0.246947 Biso 1.000000  Mg    
 Mg3    1.0    0.194482   -0.003127    0.753053 Biso 1.000000  Mg    
 Mg4    1.0    0.266518    0.496873    0.746947 Biso 1.000000  Mg    
 O1     1.0    0.972321    0.432170    0.346574 Biso 1.000000  O     
 O2     1.0    0.488679    0.932170    0.153426 Biso 1.000000  O     
 O3     1.0   -0.011321    0.932170    0.846574 Biso 1.000000  O     
 O4     1.0    0.472321    0.432170    0.653426 Biso 1.000000  O     
 O5     1.0    0.156699    0.433176    0.538378 Biso 1.000000  O     
 O6     1.0    0.304301    0.933176    0.961622 Biso 1.000000  O     
 O7     1.0    0.804301    0.933176    0.038378 Biso 1.000000  O     
 O8     1.0    0.656699    0.433176    0.461622 Biso 1.000000  O     
 O9     1.0    0.881668    0.558398    0.047320 Biso 1.000000  O     
 O10    1.0    0.579332    0.058398    0.452680 Biso 1.000000  O     
 O11    1.0    0.079332    0.058398    0.547320 Biso 1.000000  O     
 O12    1.0    0.381668    0.558398    0.952680 Biso 1.000000  O     
 O13    1.0    0.057205    0.557134    0.846537 Biso 1.000000  O     
 O14    1.0    0.403795    0.057134    0.653463 Biso 1.000000  O     
 O15    1.0   -0.096205    0.057134    0.346537 Biso 1.000000  O     
 O16    1.0    0.557205    0.557134    0.153463 Biso 1.000000  O     
 O17    1.0    0.730699    0.343107    0.131217 Biso 1.000000  O     
 O18    1.0    0.730301    0.843107    0.368783 Biso 1.000000  O     
 O19    1.0    0.230301    0.843107    0.631217 Biso 1.000000  O     
 O20    1.0    0.230699    0.343107    0.868783 Biso 1.000000  O     
 O21    1.0    0.677572    0.155915    0.124319 Biso 1.000000  O     
 O22    1.0    0.783428    0.655915    0.375681 Biso 1.000000  O     
 O23    1.0    0.283428    0.655915    0.624319 Biso 1.000000  O     
 O24    1.0    0.177572    0.155915    0.875681 Biso 1.000000  O     
 C1     1.0    1.042462    0.475792    0.468868 Biso 1.000000  C     
 C2     1.0    0.418538    0.975792    0.031132 Biso 1.000000  C     
 C3     1.0   -0.081462    0.975792    0.968868 Biso 1.000000  C     
 C4     1.0    0.542462    0.475792    0.531132 Biso 1.000000  C     
 C5     1.0    1.003798    0.523414    0.984612 Biso 1.000000  C     
 C6     1.0    0.457202    0.023414    0.515388 Biso 1.000000  C     
 C7     1.0   -0.042798    0.023414    0.484612 Biso 1.000000  C     
 C8     1.0    0.503798    0.523414    0.015388 Biso 1.000000  C     
 C9     1.0    0.718812    0.246542    0.198512 Biso 1.000000  C     
 C10    1.0    0.742188    0.746542    0.301488 Biso 1.000000  C     
 C11    1.0    0.242188    0.746542    0.698512 Biso 1.000000  C     
 C12    1.0    0.218812    0.246542    0.801488 Biso 1.000000  C     
 C13    1.0    0.255862    0.203842    0.288836 Biso 1.000000  C     
 C14    1.0    0.205836    0.703842    0.211164 Biso 1.000000  C     
 C15    1.0    0.705138    0.703842    0.788836 Biso 1.000000  C     
 C16    1.0    0.756438    0.203993    0.710862 Biso 1.000000  C     
 C17    1.0    0.371558    0.290383    0.230958 Biso 1.000000  C     
 C18    1.0    0.090141    0.790383    0.269042 Biso 1.000000  C     
 C19    1.0    0.589442    0.790383    0.730958 Biso 1.000000  C     
 C20    1.0    0.872134    0.290534    0.768740 Biso 1.000000  C     
 H1     1.0    0.998006    0.558024    0.515248 Biso 1.000000  H     
 H2     1.0    0.462994    0.058024    0.984752 Biso 1.000000  H     
 H3     1.0   -0.037006    0.058024    0.015248 Biso 1.000000  H     
 H4     1.0    0.498006    0.558024    0.484752 Biso 1.000000  H     
 H5     1.0    0.071737    0.459302    0.051936 Biso 1.000000  H     
 H6     1.0    0.389263    0.959302    0.448064 Biso 1.000000  H     
 H7     1.0   -0.110737    0.959302    0.551936 Biso 1.000000  H     
 H8     1.0    0.571737    0.459302    0.948064 Biso 1.000000  H     
 H9     1.0    0.746264    0.239624    0.331218 Biso 1.000000  H     
 H10    1.0    0.714736    0.739624    0.168782 Biso 1.000000  H     
 H11    1.0    0.214736    0.739624    0.831218 Biso 1.000000  H     
 H12    1.0    0.246264    0.239624    0.668782 Biso 1.000000  H     
 H13    1.0    0.229704    0.211898    0.410120 Biso 1.000000  H     
 H14    1.0    0.231994    0.711898    0.089880 Biso 1.000000  H     
 H15    1.0    0.731296    0.711898    0.910120 Biso 1.000000  H     
 H16    1.0    0.730280    0.212050    0.589578 Biso 1.000000  H     
 H17    1.0    0.300998    0.109801    0.263988 Biso 1.000000  H     
 H18    1.0    0.160701    0.609801    0.236012 Biso 1.000000  H     
 H19    1.0    0.660002    0.609801    0.763988 Biso 1.000000  H     
 H20    1.0    0.801574    0.109953    0.735710 Biso 1.000000  H     
 H21    1.0    0.389800    0.285630    0.108783 Biso 1.000000  H     
 H22    1.0    0.071899    0.785630    0.391217 Biso 1.000000  H     
 H23    1.0    0.571200    0.785630    0.608783 Biso 1.000000  H     
 H24    1.0    0.890376    0.285782    0.890915 Biso 1.000000  H     
 H25    1.0    0.486631    0.264183    0.275214 Biso 1.000000  H     
 H26    1.0   -0.024933    0.764183    0.224786 Biso 1.000000  H     
 H27    1.0    0.474369    0.764183    0.775214 Biso 1.000000  H     
 H28    1.0    0.987207    0.264334    0.724484 Biso 1.000000  H     
 H29    1.0    0.330985    0.383976    0.263725 Biso 1.000000  H     
 H30    1.0    0.130714    0.883976    0.236275 Biso 1.000000  H     
 H31    1.0    0.630015    0.883976    0.763725 Biso 1.000000  H     
 H32    1.0    0.831561    0.384128    0.735973 Biso 1.000000  H     
 H33    1.0    0.046103    0.310612    0.252221 Biso 1.000000  H     
 H34    1.0    0.415595    0.810612    0.247779 Biso 1.000000  H     
 H35    1.0    0.914897    0.810612    0.752221 Biso 1.000000  H     
 H36    1.0    0.546679    0.310764    0.747477 Biso 1.000000  H     
 H37    1.0    0.026825    0.159008    0.255066 Biso 1.000000  H     
 H38    1.0    0.434873    0.659008    0.244934 Biso 1.000000  H     
 H39    1.0    0.934175    0.659008    0.755066 Biso 1.000000  H     
 H40    1.0    0.527401    0.159159    0.744632 Biso 1.000000  H     
 H41    1.0    0.120238    0.218717    0.102833 Biso 1.000000  H     
 H42    1.0    0.341461    0.718717    0.397167 Biso 1.000000  H     
 H43    1.0    0.840762    0.718717    0.602833 Biso 1.000000  H     
 H44    1.0    0.620814    0.218868    0.896865 Biso 1.000000  H     
 N1     1.0    0.100859    0.225697    0.219550 Biso 1.000000  N     
 N2     1.0    0.360840    0.725697    0.280450 Biso 1.000000  N     
 N3     1.0    0.860141    0.725697    0.719550 Biso 1.000000  N     
 N4     1.0    0.601435    0.225848    0.780148 Biso 1.000000  N     
