_cell_length_a     8.1181
_cell_length_b    11.7335
_cell_length_c     8.8220
_cell_angle_alpha 90.0
_cell_angle_beta 90.0
_cell_angle_gamma 90.0
_space_group_IT_number                 1
 loop_
 _space_group_symop_operation_xyz 
 'x, y, z' 
 loop_ 
 _atom_site_label 
 _atom_site_occupancy 
 _atom_site_fract_x 
 _atom_site_fract_y
 _atom_site_fract_z
 _atom_site_adp_type
 _atom_site_U_iso_or_equiv
 _atom_site_type_symbol
 Mg1    1.0    0.740889    0.501876    0.248168 Biso 1.000000  Mg    
 Mg2    1.0    0.784111    0.001876    0.251832 Biso 1.000000  Mg    
 Mg3    1.0    0.284111    0.001876    0.748168 Biso 1.000000  Mg    
 Mg4    1.0    0.240889    0.501876    0.751832 Biso 1.000000  Mg    
 O1     1.0    0.949500    0.440727    0.346544 Biso 1.000000  O     
 O2     1.0    0.575500    0.940727    0.153456 Biso 1.000000  O     
 O3     1.0    0.075500    0.940727    0.846544 Biso 1.000000  O     
 O4     1.0    0.449500    0.440727    0.653456 Biso 1.000000  O     
 O5     1.0    0.126805    0.439917    0.545532 Biso 1.000000  O     
 O6     1.0    0.398195    0.939917    0.954468 Biso 1.000000  O     
 O7     1.0    0.898195    0.939917    0.045532 Biso 1.000000  O     
 O8     1.0    0.626805    0.439917    0.454468 Biso 1.000000  O     
 O9     1.0    0.851774    0.565139    0.040166 Biso 1.000000  O     
 O10    1.0    0.673226    0.065139    0.459834 Biso 1.000000  O     
 O11    1.0    0.173226    0.065139    0.540166 Biso 1.000000  O     
 O12    1.0    0.351774    0.565139    0.959834 Biso 1.000000  O     
 O13    1.0    0.034384    0.565691    0.846567 Biso 1.000000  O     
 O14    1.0    0.490616    0.065691    0.653433 Biso 1.000000  O     
 O15    1.0   -0.009384    0.065691    0.346567 Biso 1.000000  O     
 O16    1.0    0.534384    0.565691    0.153433 Biso 1.000000  O     
 O17    1.0    0.720197    0.343889    0.125699 Biso 1.000000  O     
 O18    1.0    0.804803    0.843889    0.374301 Biso 1.000000  O     
 O19    1.0    0.304803    0.843889    0.625699 Biso 1.000000  O     
 O20    1.0    0.220197    0.343889    0.874301 Biso 1.000000  O     
 O21    1.0    0.752074    0.156697    0.129837 Biso 1.000000  O     
 O22    1.0    0.772926    0.656697    0.370163 Biso 1.000000  O     
 O23    1.0    0.272926    0.656697    0.629837 Biso 1.000000  O     
 O24    1.0    0.252074    0.156697    0.870163 Biso 1.000000  O     
 C1     1.0    1.006254    0.476427    0.481463 Biso 1.000000  C     
 C2     1.0    0.518746    0.976427    0.018537 Biso 1.000000  C     
 C3     1.0    0.018746    0.976427    0.981463 Biso 1.000000  C     
 C4     1.0    0.506254    0.476427    0.518537 Biso 1.000000  C     
 C5     1.0    0.967590    0.524049    0.972017 Biso 1.000000  C     
 C6     1.0    0.557410    0.024049    0.527983 Biso 1.000000  C     
 C7     1.0    0.057410    0.024049    0.472017 Biso 1.000000  C     
 C8     1.0    0.467590    0.524049    0.027983 Biso 1.000000  C     
 C9     1.0    0.750812    0.252075    0.198512 Biso 1.000000  C     
 C10    1.0    0.774188    0.752075    0.301488 Biso 1.000000  C     
 C11    1.0    0.274188    0.752075    0.698512 Biso 1.000000  C     
 C12    1.0    0.250812    0.252075    0.801488 Biso 1.000000  C     
 C13    1.0    0.277736    0.265523    0.310155 Biso 1.000000  C     
 C14    1.0    0.247403    0.765523    0.189845 Biso 1.000000  C     
 C15    1.0    0.747264    0.765523    0.810155 Biso 1.000000  C     
 C16    1.0    0.777871    0.265558    0.689783 Biso 1.000000  C     
 C17    1.0    0.399577    0.192814    0.232627 Biso 1.000000  C     
 C18    1.0    0.125563    0.692814    0.267373 Biso 1.000000  C     
 C19    1.0    0.625423    0.692814    0.732627 Biso 1.000000  C     
 C20    1.0    0.899711    0.192849    0.767310 Biso 1.000000  C     
 H1     1.0    0.943012    0.544163    0.544598 Biso 1.000000  H     
 H2     1.0    0.581988    0.044163    0.955402 Biso 1.000000  H     
 H3     1.0    0.081988    0.044163    0.044598 Biso 1.000000  H     
 H4     1.0    0.443012    0.544163    0.455402 Biso 1.000000  H     
 H5     1.0    0.016743    0.445441    0.022586 Biso 1.000000  H     
 H6     1.0    0.508257    0.945441    0.477414 Biso 1.000000  H     
 H7     1.0    0.008257    0.945441    0.522586 Biso 1.000000  H     
 H8     1.0    0.516743    0.445441    0.977414 Biso 1.000000  H     
 H9     1.0    0.778264    0.256226    0.331218 Biso 1.000000  H     
 H10    1.0    0.746736    0.756226    0.168782 Biso 1.000000  H     
 H11    1.0    0.246736    0.756226    0.831218 Biso 1.000000  H     
 H12    1.0    0.278264    0.256226    0.668782 Biso 1.000000  H     
 H13    1.0    0.312203    0.355692    0.314124 Biso 1.000000  H     
 H14    1.0    0.212936    0.855692    0.185876 Biso 1.000000  H     
 H15    1.0    0.712797    0.855692    0.814124 Biso 1.000000  H     
 H16    1.0    0.812338    0.355727    0.685813 Biso 1.000000  H     
 H17    1.0    0.249455    0.234030    0.434873 Biso 1.000000  H     
 H18    1.0    0.275685    0.734030    0.065127 Biso 1.000000  H     
 H19    1.0    0.775545    0.734030    0.934873 Biso 1.000000  H     
 H20    1.0    0.749589    0.234065    0.565064 Biso 1.000000  H     
 H21    1.0    0.360122    0.104445    0.221849 Biso 1.000000  H     
 H22    1.0    0.165018    0.604445    0.278151 Biso 1.000000  H     
 H23    1.0    0.664878    0.604445    0.721849 Biso 1.000000  H     
 H24    1.0    0.860256    0.104480    0.778088 Biso 1.000000  H     
 H25    1.0    0.498138    0.188163    0.310868 Biso 1.000000  H     
 H26    1.0    0.027001    0.688163    0.189132 Biso 1.000000  H     
 H27    1.0    0.526862    0.688163    0.810868 Biso 1.000000  H     
 H28    1.0    0.998273    0.188198    0.689069 Biso 1.000000  H     
 H29    1.0    0.434724    0.228311    0.111433 Biso 1.000000  H     
 H30    1.0    0.090416    0.728311    0.388567 Biso 1.000000  H     
 H31    1.0    0.590276    0.728311    0.611433 Biso 1.000000  H     
 H32    1.0    0.934858    0.228346    0.888505 Biso 1.000000  H     
 H33    1.0    0.151303    0.304617    0.103941 Biso 1.000000  H     
 H34    1.0    0.373837    0.804617    0.396059 Biso 1.000000  H     
 H35    1.0    0.873697    0.804617    0.603941 Biso 1.000000  H     
 H36    1.0    0.651437    0.304652    0.895997 Biso 1.000000  H     
 H37    1.0    0.047772    0.310415    0.282390 Biso 1.000000  H     
 H38    1.0    0.477368    0.810415    0.217610 Biso 1.000000  H     
 H39    1.0    0.977228    0.810415    0.782390 Biso 1.000000  H     
 H40    1.0    0.547906    0.310450    0.717547 Biso 1.000000  H     
 H41    1.0    0.095499    0.180026    0.212627 Biso 1.000000  H     
 H42    1.0    0.429641    0.680026    0.287373 Biso 1.000000  H     
 H43    1.0    0.929501    0.680026    0.712627 Biso 1.000000  H     
 H44    1.0    0.595634    0.180061    0.787310 Biso 1.000000  H     
 N1     1.0    0.133007    0.265060    0.219310 Biso 1.000000  N     
 N2     1.0    0.392133    0.765060    0.280690 Biso 1.000000  N     
 N3     1.0    0.891993    0.765060    0.719310 Biso 1.000000  N     
 N4     1.0    0.633141    0.265095    0.780627 Biso 1.000000  N     
