_cell_length_a     8.1181
_cell_length_b    11.7335
_cell_length_c     8.8220
_cell_angle_alpha 90.0
_cell_angle_beta 90.0
_cell_angle_gamma 90.0
_space_group_IT_number                 1
 loop_
 _space_group_symop_operation_xyz 
 'x, y, z' 
 loop_ 
 _atom_site_label 
 _atom_site_occupancy 
 _atom_site_fract_x 
 _atom_site_fract_y
 _atom_site_fract_z
 _atom_site_adp_type
 _atom_site_U_iso_or_equiv
 _atom_site_type_symbol
 Mg1    1.0    0.734482    0.503127    0.246947 Biso 1.000000  Mg    
 Mg2    1.0    0.806518    0.003127    0.253053 Biso 1.000000  Mg    
 Mg3    1.0    0.306518    0.003127    0.746947 Biso 1.000000  Mg    
 Mg4    1.0    0.234482    0.503127    0.753053 Biso 1.000000  Mg    
 O1     1.0    0.943795    0.442866    0.346537 Biso 1.000000  O     
 O2     1.0    0.597205    0.942866    0.153463 Biso 1.000000  O     
 O3     1.0    0.097205    0.942866    0.846537 Biso 1.000000  O     
 O4     1.0    0.443795    0.442866    0.653463 Biso 1.000000  O     
 O5     1.0    0.119332    0.441602    0.547320 Biso 1.000000  O     
 O6     1.0    0.421668    0.941602    0.952680 Biso 1.000000  O     
 O7     1.0    0.921668    0.941602    0.047320 Biso 1.000000  O     
 O8     1.0    0.619332    0.441602    0.452680 Biso 1.000000  O     
 O9     1.0    0.844301    0.566824    0.038378 Biso 1.000000  O     
 O10    1.0    0.696699    0.066824    0.461622 Biso 1.000000  O     
 O11    1.0    0.196699    0.066824    0.538378 Biso 1.000000  O     
 O12    1.0    0.344301    0.566824    0.961622 Biso 1.000000  O     
 O13    1.0    0.028679    0.567830    0.846574 Biso 1.000000  O     
 O14    1.0    0.512321    0.067830    0.653426 Biso 1.000000  O     
 O15    1.0    0.012321    0.067830    0.346574 Biso 1.000000  O     
 O16    1.0    0.528679    0.567830    0.153426 Biso 1.000000  O     
 O17    1.0    0.717572    0.344085    0.124319 Biso 1.000000  O     
 O18    1.0    0.823428    0.844085    0.375681 Biso 1.000000  O     
 O19    1.0    0.323428    0.844085    0.624319 Biso 1.000000  O     
 O20    1.0    0.217572    0.344085    0.875681 Biso 1.000000  O     
 O21    1.0    0.770699    0.156893    0.131217 Biso 1.000000  O     
 O22    1.0    0.770301    0.656893    0.368783 Biso 1.000000  O     
 O23    1.0    0.270301    0.656893    0.631217 Biso 1.000000  O     
 O24    1.0    0.270699    0.156893    0.868783 Biso 1.000000  O     
 C1     1.0    0.997202    0.476586    0.484612 Biso 1.000000  C     
 C2     1.0    0.543798    0.976586    0.015388 Biso 1.000000  C     
 C3     1.0    0.043798    0.976586    0.984612 Biso 1.000000  C     
 C4     1.0    0.497202    0.476586    0.515388 Biso 1.000000  C     
 C5     1.0    0.958538    0.524208    0.968868 Biso 1.000000  C     
 C6     1.0    0.582462    0.024208    0.531132 Biso 1.000000  C     
 C7     1.0    0.082462    0.024208    0.468868 Biso 1.000000  C     
 C8     1.0    0.458538    0.524208    0.031132 Biso 1.000000  C     
 C9     1.0    0.758812    0.253458    0.198512 Biso 1.000000  C     
 C10    1.0    0.782188    0.753458    0.301488 Biso 1.000000  C     
 C11    1.0    0.282188    0.753458    0.698512 Biso 1.000000  C     
 C12    1.0    0.258812    0.253458    0.801488 Biso 1.000000  C     
 C13    1.0    0.294361    0.288306    0.295064 Biso 1.000000  C     
 C14    1.0    0.246639    0.788306    0.204936 Biso 1.000000  C     
 C15    1.0    0.746639    0.788306    0.795064 Biso 1.000000  C     
 C16    1.0    0.794361    0.288306    0.704936 Biso 1.000000  C     
 C17    1.0    0.399466    0.191800    0.249203 Biso 1.000000  C     
 C18    1.0    0.141534    0.691800    0.250797 Biso 1.000000  C     
 C19    1.0    0.641534    0.691800    0.749203 Biso 1.000000  C     
 C20    1.0    0.899466    0.191800    0.750797 Biso 1.000000  C     
 H1     1.0    0.929263    0.540698    0.551936 Biso 1.000000  H     
 H2     1.0    0.611737    0.040698    0.948064 Biso 1.000000  H     
 H3     1.0    0.111737    0.040698    0.051936 Biso 1.000000  H     
 H4     1.0    0.429263    0.540698    0.448064 Biso 1.000000  H     
 H5     1.0    0.002994    0.441976    0.015248 Biso 1.000000  H     
 H6     1.0    0.538006    0.941976    0.484752 Biso 1.000000  H     
 H7     1.0    0.038006    0.941976    0.515248 Biso 1.000000  H     
 H8     1.0    0.502994    0.441976    0.984752 Biso 1.000000  H     
 H9     1.0    0.786264    0.260376    0.331218 Biso 1.000000  H     
 H10    1.0    0.754736    0.760376    0.168782 Biso 1.000000  H     
 H11    1.0    0.254736    0.760376    0.831218 Biso 1.000000  H     
 H12    1.0    0.286264    0.260376    0.668782 Biso 1.000000  H     
 H13    1.0    0.338414    0.371070    0.254523 Biso 1.000000  H     
 H14    1.0    0.202586    0.871070    0.245477 Biso 1.000000  H     
 H15    1.0    0.702586    0.871070    0.754523 Biso 1.000000  H     
 H16    1.0    0.838414    0.371070    0.745477 Biso 1.000000  H     
 H17    1.0    0.276248    0.293160    0.427981 Biso 1.000000  H     
 H18    1.0    0.264752    0.793160    0.072019 Biso 1.000000  H     
 H19    1.0    0.764752    0.793160    0.927981 Biso 1.000000  H     
 H20    1.0    0.776248    0.293160    0.572019 Biso 1.000000  H     
 H21    1.0    0.349926    0.109306    0.282849 Biso 1.000000  H     
 H22    1.0    0.191074    0.609306    0.217151 Biso 1.000000  H     
 H23    1.0    0.691074    0.609306    0.782849 Biso 1.000000  H     
 H24    1.0    0.849926    0.109306    0.717151 Biso 1.000000  H     
 H25    1.0    0.505122    0.200749    0.318423 Biso 1.000000  H     
 H26    1.0    0.035878    0.700749    0.181577 Biso 1.000000  H     
 H27    1.0    0.535878    0.700749    0.818423 Biso 1.000000  H     
 H28    1.0    1.005122    0.200749    0.681577 Biso 1.000000  H     
 H29    1.0    0.425186    0.191111    0.117286 Biso 1.000000  H     
 H30    1.0    0.115814    0.691111    0.382714 Biso 1.000000  H     
 H31    1.0    0.615814    0.691111    0.617286 Biso 1.000000  H     
 H32    1.0    0.925186    0.191111    0.882714 Biso 1.000000  H     
 H33    1.0    0.151043    0.280372    0.091939 Biso 1.000000  H     
 H34    1.0    0.389957    0.780372    0.408061 Biso 1.000000  H     
 H35    1.0    0.889957    0.780372    0.591939 Biso 1.000000  H     
 H36    1.0    0.651043    0.280372    0.908061 Biso 1.000000  H     
 H37    1.0    0.067843    0.339234    0.262202 Biso 1.000000  H     
 H38    1.0    0.473157    0.839234    0.237798 Biso 1.000000  H     
 H39    1.0    0.973157    0.839234    0.762202 Biso 1.000000  H     
 H40    1.0    0.567843    0.339234    0.737798 Biso 1.000000  H     
 H41    1.0    0.094183    0.196118    0.255077 Biso 1.000000  H     
 H42    1.0    0.446817    0.696118    0.244923 Biso 1.000000  H     
 H43    1.0    0.946817    0.696118    0.755077 Biso 1.000000  H     
 H44    1.0    0.594183    0.196118    0.744923 Biso 1.000000  H     
 N1     1.0    0.141006    0.274577    0.219284 Biso 1.000000  N     
 N2     1.0    0.399994    0.774577    0.280716 Biso 1.000000  N     
 N3     1.0    0.899994    0.774577    0.719284 Biso 1.000000  N     
 N4     1.0    0.641006    0.274577    0.780716 Biso 1.000000  N     
