_cell_length_a     8.1181
_cell_length_b    11.7335
_cell_length_c     8.8220
_cell_angle_alpha 90.0
_cell_angle_beta 90.0
_cell_angle_gamma 90.0
_space_group_IT_number                 1
 loop_
 _space_group_symop_operation_xyz 
 'x, y, z' 
 loop_ 
 _atom_site_label 
 _atom_site_occupancy 
 _atom_site_fract_x 
 _atom_site_fract_y
 _atom_site_fract_z
 _atom_site_adp_type
 _atom_site_U_iso_or_equiv
 _atom_site_type_symbol
 Mg1    1.0    0.747296    0.500625    0.249389 Biso 1.000000  Mg    
 Mg2    1.0    0.761704    0.000625    0.250611 Biso 1.000000  Mg    
 Mg3    1.0    0.261704    0.000625    0.749389 Biso 1.000000  Mg    
 Mg4    1.0    0.247296    0.500625    0.750611 Biso 1.000000  Mg    
 O1     1.0    0.955205    0.438588    0.346552 Biso 1.000000  O     
 O2     1.0    0.553795    0.938588    0.153448 Biso 1.000000  O     
 O3     1.0    0.053795    0.938588    0.846552 Biso 1.000000  O     
 O4     1.0    0.455205    0.438588    0.653448 Biso 1.000000  O     
 O5     1.0    0.134279    0.438232    0.543743 Biso 1.000000  O     
 O6     1.0    0.374721    0.938232    0.956257 Biso 1.000000  O     
 O7     1.0    0.874721    0.938232    0.043743 Biso 1.000000  O     
 O8     1.0    0.634279    0.438232    0.456257 Biso 1.000000  O     
 O9     1.0    0.859248    0.563454    0.041955 Biso 1.000000  O     
 O10    1.0    0.649752    0.063454    0.458045 Biso 1.000000  O     
 O11    1.0    0.149752    0.063454    0.541955 Biso 1.000000  O     
 O12    1.0    0.359248    0.563454    0.958045 Biso 1.000000  O     
 O13    1.0    0.040089    0.563552    0.846559 Biso 1.000000  O     
 O14    1.0    0.468911    0.063552    0.653441 Biso 1.000000  O     
 O15    1.0   -0.031089    0.063552    0.346559 Biso 1.000000  O     
 O16    1.0    0.540089    0.563552    0.153441 Biso 1.000000  O     
 O17    1.0    0.722823    0.343694    0.127078 Biso 1.000000  O     
 O18    1.0    0.786177    0.843694    0.372922 Biso 1.000000  O     
 O19    1.0    0.286177    0.843694    0.627078 Biso 1.000000  O     
 O20    1.0    0.222823    0.343694    0.872922 Biso 1.000000  O     
 O21    1.0    0.733448    0.156502    0.128458 Biso 1.000000  O     
 O22    1.0    0.775552    0.656502    0.371542 Biso 1.000000  O     
 O23    1.0    0.275552    0.656502    0.628458 Biso 1.000000  O     
 O24    1.0    0.233448    0.156502    0.871542 Biso 1.000000  O     
 C1     1.0    1.015306    0.476268    0.478314 Biso 1.000000  C     
 C2     1.0    0.493694    0.976268    0.021686 Biso 1.000000  C     
 C3     1.0   -0.006306    0.976268    0.978314 Biso 1.000000  C     
 C4     1.0    0.515306    0.476268    0.521686 Biso 1.000000  C     
 C5     1.0    0.976642    0.523890    0.975166 Biso 1.000000  C     
 C6     1.0    0.532358    0.023890    0.524834 Biso 1.000000  C     
 C7     1.0    0.032358    0.023890    0.475166 Biso 1.000000  C     
 C8     1.0    0.476642    0.523890    0.024834 Biso 1.000000  C     
 C9     1.0    0.742812    0.250692    0.198512 Biso 1.000000  C     
 C10    1.0    0.766188    0.750692    0.301488 Biso 1.000000  C     
 C11    1.0    0.266188    0.750692    0.698512 Biso 1.000000  C     
 C12    1.0    0.242812    0.250692    0.801488 Biso 1.000000  C     
 C13    1.0    0.264788    0.242795    0.315064 Biso 1.000000  C     
 C14    1.0    0.244492    0.742795    0.184936 Biso 1.000000  C     
 C15    1.0    0.744212    0.742795    0.815064 Biso 1.000000  C     
 C16    1.0    0.765046    0.242863    0.684811 Biso 1.000000  C     
 C17    1.0    0.402213    0.205095    0.217976 Biso 1.000000  C     
 C18    1.0    0.107066    0.705095    0.282024 Biso 1.000000  C     
 C19    1.0    0.606787    0.705095    0.717976 Biso 1.000000  C     
 C20    1.0    0.902472    0.205163    0.781899 Biso 1.000000  C     
 H1     1.0    0.956760    0.547628    0.537261 Biso 1.000000  H     
 H2     1.0    0.552240    0.047628    0.962739 Biso 1.000000  H     
 H3     1.0    0.052240    0.047628    0.037261 Biso 1.000000  H     
 H4     1.0    0.456760    0.547628    0.462739 Biso 1.000000  H     
 H5     1.0    0.030491    0.448906    0.029923 Biso 1.000000  H     
 H6     1.0    0.478509    0.948906    0.470077 Biso 1.000000  H     
 H7     1.0   -0.021491    0.948906    0.529923 Biso 1.000000  H     
 H8     1.0    0.530491    0.448906    0.970077 Biso 1.000000  H     
 H9     1.0    0.770264    0.252075    0.331218 Biso 1.000000  H     
 H10    1.0    0.738736    0.752075    0.168782 Biso 1.000000  H     
 H11    1.0    0.238736    0.752075    0.831218 Biso 1.000000  H     
 H12    1.0    0.270264    0.252075    0.668782 Biso 1.000000  H     
 H13    1.0    0.281729    0.328154    0.362730 Biso 1.000000  H     
 H14    1.0    0.227551    0.828154    0.137270 Biso 1.000000  H     
 H15    1.0    0.727271    0.828154    0.862730 Biso 1.000000  H     
 H16    1.0    0.781987    0.328223    0.637145 Biso 1.000000  H     
 H17    1.0    0.237970    0.178292    0.415152 Biso 1.000000  H     
 H18    1.0    0.271309    0.678292    0.084848 Biso 1.000000  H     
 H19    1.0    0.771030    0.678292    0.915152 Biso 1.000000  H     
 H20    1.0    0.738229    0.178361    0.584723 Biso 1.000000  H     
 H21    1.0    0.380249    0.122833    0.164409 Biso 1.000000  H     
 H22    1.0    0.129030    0.622833    0.335591 Biso 1.000000  H     
 H23    1.0    0.628751    0.622833    0.664409 Biso 1.000000  H     
 H24    1.0    0.880508    0.122902    0.835466 Biso 1.000000  H     
 H25    1.0    0.497763    0.187536    0.296139 Biso 1.000000  H     
 H26    1.0    0.011516    0.687536    0.203861 Biso 1.000000  H     
 H27    1.0    0.511237    0.687536    0.796139 Biso 1.000000  H     
 H28    1.0    0.998022    0.187605    0.703736 Biso 1.000000  H     
 H29    1.0    0.434941    0.272907    0.123522 Biso 1.000000  H     
 H30    1.0    0.074338    0.772907    0.376478 Biso 1.000000  H     
 H31    1.0    0.574059    0.772907    0.623522 Biso 1.000000  H     
 H32    1.0    0.935200    0.272975    0.876353 Biso 1.000000  H     
 H33    1.0    0.139985    0.324177    0.131056 Biso 1.000000  H     
 H34    1.0    0.369294    0.824177    0.368944 Biso 1.000000  H     
 H35    1.0    0.869015    0.824177    0.631056 Biso 1.000000  H     
 H36    1.0    0.640244    0.324245    0.868819 Biso 1.000000  H     
 H37    1.0    0.029510    0.274331    0.293075 Biso 1.000000  H     
 H38    1.0    0.479769    0.774331    0.206925 Biso 1.000000  H     
 H39    1.0    0.979490    0.774331    0.793075 Biso 1.000000  H     
 H40    1.0    0.529769    0.274399    0.706800 Biso 1.000000  H     
 H41    1.0    0.104121    0.175322    0.171355 Biso 1.000000  H     
 H42    1.0    0.405158    0.675322    0.328645 Biso 1.000000  H     
 H43    1.0    0.904879    0.675322    0.671355 Biso 1.000000  H     
 H44    1.0    0.604380    0.175391    0.828520 Biso 1.000000  H     
 N1     1.0    0.124943    0.255423    0.219418 Biso 1.000000  N     
 N2     1.0    0.384336    0.755423    0.280582 Biso 1.000000  N     
 N3     1.0    0.884057    0.755423    0.719418 Biso 1.000000  N     
 N4     1.0    0.625202    0.255491    0.780457 Biso 1.000000  N     
