_cell_length_a     8.1181
_cell_length_b    11.7335
_cell_length_c     8.8220
_cell_angle_alpha 90.0
_cell_angle_beta 90.0
_cell_angle_gamma 90.0
_space_group_IT_number                 1
 loop_
 _space_group_symop_operation_xyz 
 'x, y, z' 
 loop_ 
 _atom_site_label 
 _atom_site_occupancy 
 _atom_site_fract_x 
 _atom_site_fract_y
 _atom_site_fract_z
 _atom_site_adp_type
 _atom_site_U_iso_or_equiv
 _atom_site_type_symbol
 Mg1    1.0    0.763314    0.497498    0.252442 Biso 1.000000  Mg    
 Mg2    1.0    0.705686   -0.002502    0.247558 Biso 1.000000  Mg    
 Mg3    1.0    0.205686   -0.002502    0.752442 Biso 1.000000  Mg    
 Mg4    1.0    0.263314    0.497498    0.747558 Biso 1.000000  Mg    
 O1     1.0    0.969468    0.433240    0.346570 Biso 1.000000  O     
 O2     1.0    0.499532    0.933240    0.153430 Biso 1.000000  O     
 O3     1.0   -0.000468    0.933240    0.846570 Biso 1.000000  O     
 O4     1.0    0.469468    0.433240    0.653430 Biso 1.000000  O     
 O5     1.0    0.152962    0.434019    0.539272 Biso 1.000000  O     
 O6     1.0    0.316038    0.934019    0.960728 Biso 1.000000  O     
 O7     1.0    0.816038    0.934019    0.039272 Biso 1.000000  O     
 O8     1.0    0.652962    0.434019    0.460728 Biso 1.000000  O     
 O9     1.0    0.877931    0.559241    0.046426 Biso 1.000000  O     
 O10    1.0    0.591069    0.059241    0.453574 Biso 1.000000  O     
 O11    1.0    0.091069    0.059241    0.546426 Biso 1.000000  O     
 O12    1.0    0.377931    0.559241    0.953574 Biso 1.000000  O     
 O13    1.0    0.054352    0.558204    0.846541 Biso 1.000000  O     
 O14    1.0    0.414648    0.058204    0.653459 Biso 1.000000  O     
 O15    1.0   -0.085352    0.058204    0.346541 Biso 1.000000  O     
 O16    1.0    0.554352    0.558204    0.153459 Biso 1.000000  O     
 O17    1.0    0.729386    0.343205    0.130527 Biso 1.000000  O     
 O18    1.0    0.739614    0.843205    0.369473 Biso 1.000000  O     
 O19    1.0    0.239614    0.843205    0.630527 Biso 1.000000  O     
 O20    1.0    0.229386    0.343205    0.869473 Biso 1.000000  O     
 O21    1.0    0.686885    0.156013    0.125009 Biso 1.000000  O     
 O22    1.0    0.782115    0.656013    0.374991 Biso 1.000000  O     
 O23    1.0    0.282115    0.656013    0.625009 Biso 1.000000  O     
 O24    1.0    0.186885    0.156013    0.874991 Biso 1.000000  O     
 C1     1.0    1.037936    0.475871    0.470442 Biso 1.000000  C     
 C2     1.0    0.431064    0.975871    0.029558 Biso 1.000000  C     
 C3     1.0   -0.068936    0.975871    0.970442 Biso 1.000000  C     
 C4     1.0    0.537936    0.475871    0.529558 Biso 1.000000  C     
 C5     1.0    0.999272    0.523493    0.983038 Biso 1.000000  C     
 C6     1.0    0.469728    0.023493    0.516962 Biso 1.000000  C     
 C7     1.0   -0.030272    0.023493    0.483038 Biso 1.000000  C     
 C8     1.0    0.499272    0.523493    0.016962 Biso 1.000000  C     
 C9     1.0    0.722812    0.247234    0.198512 Biso 1.000000  C     
 C10    1.0    0.746188    0.747234    0.301488 Biso 1.000000  C     
 C11    1.0    0.246188    0.747234    0.698512 Biso 1.000000  C     
 C12    1.0    0.222812    0.247234    0.801488 Biso 1.000000  C     
 C13    1.0    0.255298    0.205638    0.295096 Biso 1.000000  C     
 C14    1.0    0.214331    0.705638    0.204904 Biso 1.000000  C     
 C15    1.0    0.713702    0.705638    0.795096 Biso 1.000000  C     
 C16    1.0    0.755826    0.205779    0.704630 Biso 1.000000  C     
 C17    1.0    0.384506    0.274153    0.220988 Biso 1.000000  C     
 C18    1.0    0.085123    0.774153    0.279012 Biso 1.000000  C     
 C19    1.0    0.584494    0.774153    0.720988 Biso 1.000000  C     
 C20    1.0    0.885034    0.274293    0.778738 Biso 1.000000  C     
 H1     1.0    0.991132    0.556291    0.518917 Biso 1.000000  H     
 H2     1.0    0.477868    0.056291    0.981083 Biso 1.000000  H     
 H3     1.0   -0.022132    0.056291    0.018917 Biso 1.000000  H     
 H4     1.0    0.491132    0.556291    0.481083 Biso 1.000000  H     
 H5     1.0    0.064863    0.457569    0.048267 Biso 1.000000  H     
 H6     1.0    0.404137    0.957569    0.451733 Biso 1.000000  H     
 H7     1.0   -0.095863    0.957569    0.548267 Biso 1.000000  H     
 H8     1.0    0.564863    0.457569    0.951733 Biso 1.000000  H     
 H9     1.0    0.750264    0.241699    0.331218 Biso 1.000000  H     
 H10    1.0    0.718736    0.741699    0.168782 Biso 1.000000  H     
 H11    1.0    0.218736    0.741699    0.831218 Biso 1.000000  H     
 H12    1.0    0.250264    0.241699    0.668782 Biso 1.000000  H     
 H13    1.0    0.230932    0.230580    0.412573 Biso 1.000000  H     
 H14    1.0    0.238697    0.730580    0.087427 Biso 1.000000  H     
 H15    1.0    0.738068    0.730580    0.912573 Biso 1.000000  H     
 H16    1.0    0.731460    0.230720    0.587153 Biso 1.000000  H     
 H17    1.0    0.284411    0.106867    0.291733 Biso 1.000000  H     
 H18    1.0    0.185218    0.606867    0.208267 Biso 1.000000  H     
 H19    1.0    0.684589    0.606867    0.791733 Biso 1.000000  H     
 H20    1.0    0.784939    0.107008    0.707993 Biso 1.000000  H     
 H21    1.0    0.401557    0.252963    0.101791 Biso 1.000000  H     
 H22    1.0    0.068072    0.752963    0.398209 Biso 1.000000  H     
 H23    1.0    0.567443    0.752963    0.601791 Biso 1.000000  H     
 H24    1.0    0.902085    0.253103    0.897935 Biso 1.000000  H     
 H25    1.0    0.494548    0.244872    0.272127 Biso 1.000000  H     
 H26    1.0   -0.024920    0.744872    0.227873 Biso 1.000000  H     
 H27    1.0    0.474452    0.744872    0.772127 Biso 1.000000  H     
 H28    1.0    0.995077    0.245012    0.727599 Biso 1.000000  H     
 H29    1.0    0.359868    0.373104    0.232331 Biso 1.000000  H     
 H30    1.0    0.109761    0.873104    0.267669 Biso 1.000000  H     
 H31    1.0    0.609132    0.873104    0.732331 Biso 1.000000  H     
 H32    1.0    0.860396    0.373245    0.767395 Biso 1.000000  H     
 H33    1.0    0.064638    0.322276    0.232507 Biso 1.000000  H     
 H34    1.0    0.404990    0.822276    0.267493 Biso 1.000000  H     
 H35    1.0    0.904362    0.822276    0.732507 Biso 1.000000  H     
 H36    1.0    0.565167    0.322416    0.767219 Biso 1.000000  H     
 H37    1.0    0.020242    0.175607    0.267973 Biso 1.000000  H     
 H38    1.0    0.449387    0.675607    0.232027 Biso 1.000000  H     
 H39    1.0    0.948758    0.675607    0.767973 Biso 1.000000  H     
 H40    1.0    0.520770    0.175748    0.731752 Biso 1.000000  H     
 H41    1.0    0.122632    0.207932    0.106281 Biso 1.000000  H     
 H42    1.0    0.346997    0.707932    0.393719 Biso 1.000000  H     
 H43    1.0    0.846368    0.707932    0.606281 Biso 1.000000  H     
 H44    1.0    0.623160    0.208073    0.893445 Biso 1.000000  H     
 N1     1.0    0.104810    0.230720    0.219592 Biso 1.000000  N     
 N2     1.0    0.364819    0.730720    0.280408 Biso 1.000000  N     
 N3     1.0    0.864190    0.730720    0.719592 Biso 1.000000  N     
 N4     1.0    0.605338    0.230861    0.780134 Biso 1.000000  N     
