_cell_length_a     8.1181
_cell_length_b    11.7335
_cell_length_c     8.8220
_cell_angle_alpha 90.0
_cell_angle_beta 90.0
_cell_angle_gamma 90.0
_space_group_IT_number                 1
 loop_
 _space_group_symop_operation_xyz 
 'x, y, z' 
 loop_ 
 _atom_site_label 
 _atom_site_occupancy 
 _atom_site_fract_x 
 _atom_site_fract_y
 _atom_site_fract_z
 _atom_site_adp_type
 _atom_site_U_iso_or_equiv
 _atom_site_type_symbol
 Mg1    1.0    0.756907    0.498749    0.251221 Biso 1.000000  Mg    
 Mg2    1.0    0.728093   -0.001251    0.248779 Biso 1.000000  Mg    
 Mg3    1.0    0.228093   -0.001251    0.751221 Biso 1.000000  Mg    
 Mg4    1.0    0.256907    0.498749    0.748779 Biso 1.000000  Mg    
 O1     1.0    0.963763    0.435379    0.346563 Biso 1.000000  O     
 O2     1.0    0.521237    0.935379    0.153437 Biso 1.000000  O     
 O3     1.0    0.021237    0.935379    0.846563 Biso 1.000000  O     
 O4     1.0    0.463763    0.435379    0.653437 Biso 1.000000  O     
 O5     1.0    0.145489    0.435704    0.541061 Biso 1.000000  O     
 O6     1.0    0.339511    0.935704    0.958939 Biso 1.000000  O     
 O7     1.0    0.839511    0.935704    0.041061 Biso 1.000000  O     
 O8     1.0    0.645489    0.435704    0.458939 Biso 1.000000  O     
 O9     1.0    0.870458    0.560926    0.044637 Biso 1.000000  O     
 O10    1.0    0.614542    0.060926    0.455363 Biso 1.000000  O     
 O11    1.0    0.114542    0.060926    0.544637 Biso 1.000000  O     
 O12    1.0    0.370458    0.560926    0.955363 Biso 1.000000  O     
 O13    1.0    0.048647    0.560343    0.846548 Biso 1.000000  O     
 O14    1.0    0.436353    0.060343    0.653452 Biso 1.000000  O     
 O15    1.0   -0.063647    0.060343    0.346548 Biso 1.000000  O     
 O16    1.0    0.548647    0.560343    0.153452 Biso 1.000000  O     
 O17    1.0    0.726761    0.343400    0.129148 Biso 1.000000  O     
 O18    1.0    0.758239    0.843400    0.370852 Biso 1.000000  O     
 O19    1.0    0.258239    0.843400    0.629148 Biso 1.000000  O     
 O20    1.0    0.226761    0.343400    0.870852 Biso 1.000000  O     
 O21    1.0    0.705510    0.156208    0.126388 Biso 1.000000  O     
 O22    1.0    0.779490    0.656208    0.373612 Biso 1.000000  O     
 O23    1.0    0.279490    0.656208    0.626388 Biso 1.000000  O     
 O24    1.0    0.205510    0.156208    0.873612 Biso 1.000000  O     
 C1     1.0    1.028884    0.476030    0.473591 Biso 1.000000  C     
 C2     1.0    0.456116    0.976030    0.026409 Biso 1.000000  C     
 C3     1.0   -0.043884    0.976030    0.973591 Biso 1.000000  C     
 C4     1.0    0.528884    0.476030    0.526409 Biso 1.000000  C     
 C5     1.0    0.990220    0.523652    0.979889 Biso 1.000000  C     
 C6     1.0    0.494780    0.023652    0.520111 Biso 1.000000  C     
 C7     1.0   -0.005220    0.023652    0.479889 Biso 1.000000  C     
 C8     1.0    0.490220    0.523652    0.020111 Biso 1.000000  C     
 C9     1.0    0.730812    0.248617    0.198512 Biso 1.000000  C     
 C10    1.0    0.754188    0.748617    0.301488 Biso 1.000000  C     
 C11    1.0    0.254188    0.748617    0.698512 Biso 1.000000  C     
 C12    1.0    0.230812    0.248617    0.801488 Biso 1.000000  C     
 C13    1.0    0.255620    0.215476    0.306739 Biso 1.000000  C     
 C14    1.0    0.229869    0.715476    0.193261 Biso 1.000000  C     
 C15    1.0    0.729380    0.715476    0.806739 Biso 1.000000  C     
 C16    1.0    0.756047    0.215590    0.693045 Biso 1.000000  C     
 C17    1.0    0.399310    0.242139    0.210865 Biso 1.000000  C     
 C18    1.0    0.086179    0.742139    0.289135 Biso 1.000000  C     
 C19    1.0    0.585690    0.742139    0.710865 Biso 1.000000  C     
 C20    1.0    0.899737    0.242254    0.788919 Biso 1.000000  C     
 H1     1.0    0.977383    0.552826    0.526254 Biso 1.000000  H     
 H2     1.0    0.507617    0.052826    0.973746 Biso 1.000000  H     
 H3     1.0    0.007617    0.052826    0.026254 Biso 1.000000  H     
 H4     1.0    0.477383    0.552826    0.473746 Biso 1.000000  H     
 H5     1.0    0.051114    0.454104    0.040930 Biso 1.000000  H     
 H6     1.0    0.433886    0.954104    0.459070 Biso 1.000000  H     
 H7     1.0   -0.066114    0.954104    0.540930 Biso 1.000000  H     
 H8     1.0    0.551114    0.454104    0.959070 Biso 1.000000  H     
 H9     1.0    0.758264    0.245850    0.331218 Biso 1.000000  H     
 H10    1.0    0.726736    0.745850    0.168782 Biso 1.000000  H     
 H11    1.0    0.226736    0.745850    0.831218 Biso 1.000000  H     
 H12    1.0    0.258264    0.245850    0.668782 Biso 1.000000  H     
 H13    1.0    0.243377    0.271169    0.405684 Biso 1.000000  H     
 H14    1.0    0.242112    0.771169    0.094316 Biso 1.000000  H     
 H15    1.0    0.741623    0.771169    0.905684 Biso 1.000000  H     
 H16    1.0    0.743804    0.271284    0.594100 Biso 1.000000  H     
 H17    1.0    0.255235    0.119555    0.348099 Biso 1.000000  H     
 H18    1.0    0.230254    0.619555    0.151901 Biso 1.000000  H     
 H19    1.0    0.729765    0.619555    0.848099 Biso 1.000000  H     
 H20    1.0    0.755662    0.119670    0.651685 Biso 1.000000  H     
 H21    1.0    0.405421    0.190492    0.108405 Biso 1.000000  H     
 H22    1.0    0.080068    0.690492    0.391595 Biso 1.000000  H     
 H23    1.0    0.579579    0.690492    0.608405 Biso 1.000000  H     
 H24    1.0    0.905848    0.190606    0.891379 Biso 1.000000  H     
 H25    1.0    0.500398    0.212596    0.275587 Biso 1.000000  H     
 H26    1.0   -0.014909    0.712596    0.224413 Biso 1.000000  H     
 H27    1.0    0.484602    0.712596    0.775587 Biso 1.000000  H     
 H28    1.0    1.000825    0.212710    0.724197 Biso 1.000000  H     
 H29    1.0    0.404423    0.339594    0.177094 Biso 1.000000  H     
 H30    1.0    0.081065    0.839594    0.322906 Biso 1.000000  H     
 H31    1.0    0.580577    0.839594    0.677094 Biso 1.000000  H     
 H32    1.0    0.904850    0.339708    0.822690 Biso 1.000000  H     
 H33    1.0    0.100628    0.333893    0.190047 Biso 1.000000  H     
 H34    1.0    0.384861    0.833893    0.309953 Biso 1.000000  H     
 H35    1.0    0.884372    0.833893    0.690047 Biso 1.000000  H     
 H36    1.0    0.601055    0.334007    0.809737 Biso 1.000000  H     
 H37    1.0    0.015775    0.213752    0.286746 Biso 1.000000  H     
 H38    1.0    0.469714    0.713752    0.213254 Biso 1.000000  H     
 H39    1.0    0.969225    0.713752    0.786746 Biso 1.000000  H     
 H40    1.0    0.516202    0.213867    0.713038 Biso 1.000000  H     
 H41    1.0    0.119434    0.188941    0.123399 Biso 1.000000  H     
 H42    1.0    0.366055    0.688941    0.376601 Biso 1.000000  H     
 H43    1.0    0.865566    0.688941    0.623399 Biso 1.000000  H     
 H44    1.0    0.619861    0.189055    0.876385 Biso 1.000000  H     
 N1     1.0    0.112816    0.240699    0.219581 Biso 1.000000  N     
 N2     1.0    0.372673    0.740699    0.280419 Biso 1.000000  N     
 N3     1.0    0.872184    0.740699    0.719581 Biso 1.000000  N     
 N4     1.0    0.613243    0.240814    0.780204 Biso 1.000000  N     
