_cell_length_a     8.1181
_cell_length_b    11.7335
_cell_length_c     8.8220
_cell_angle_alpha 90.0
_cell_angle_beta 90.0
_cell_angle_gamma 90.0
_space_group_IT_number                 1
 loop_
 _space_group_symop_operation_xyz 
 'x, y, z' 
 loop_ 
 _atom_site_label 
 _atom_site_occupancy 
 _atom_site_fract_x 
 _atom_site_fract_y
 _atom_site_fract_z
 _atom_site_adp_type
 _atom_site_U_iso_or_equiv
 _atom_site_type_symbol
 Mg1    1.0    0.753704    0.499375    0.250611 Biso 1.000000  Mg    
 Mg2    1.0    0.739296   -0.000625    0.249389 Biso 1.000000  Mg    
 Mg3    1.0    0.239296   -0.000625    0.750611 Biso 1.000000  Mg    
 Mg4    1.0    0.253704    0.499375    0.749389 Biso 1.000000  Mg    
 O1     1.0    0.960911    0.436448    0.346559 Biso 1.000000  O     
 O2     1.0    0.532089    0.936448    0.153441 Biso 1.000000  O     
 O3     1.0    0.032089    0.936448    0.846559 Biso 1.000000  O     
 O4     1.0    0.460911    0.436448    0.653441 Biso 1.000000  O     
 O5     1.0    0.141752    0.436546    0.541955 Biso 1.000000  O     
 O6     1.0    0.351248    0.936546    0.958045 Biso 1.000000  O     
 O7     1.0    0.851248    0.936546    0.041955 Biso 1.000000  O     
 O8     1.0    0.641752    0.436546    0.458045 Biso 1.000000  O     
 O9     1.0    0.866721    0.561768    0.043743 Biso 1.000000  O     
 O10    1.0    0.626279    0.061768    0.456257 Biso 1.000000  O     
 O11    1.0    0.126279    0.061768    0.543743 Biso 1.000000  O     
 O12    1.0    0.366721    0.561768    0.956257 Biso 1.000000  O     
 O13    1.0    0.045795    0.561412    0.846552 Biso 1.000000  O     
 O14    1.0    0.447205    0.061412    0.653448 Biso 1.000000  O     
 O15    1.0   -0.052795    0.061412    0.346552 Biso 1.000000  O     
 O16    1.0    0.545795    0.561412    0.153448 Biso 1.000000  O     
 O17    1.0    0.725448    0.343498    0.128458 Biso 1.000000  O     
 O18    1.0    0.767552    0.843498    0.371542 Biso 1.000000  O     
 O19    1.0    0.267552    0.843498    0.628458 Biso 1.000000  O     
 O20    1.0    0.225448    0.343498    0.871542 Biso 1.000000  O     
 O21    1.0    0.714823    0.156306    0.127078 Biso 1.000000  O     
 O22    1.0    0.778177    0.656306    0.372922 Biso 1.000000  O     
 O23    1.0    0.278177    0.656306    0.627078 Biso 1.000000  O     
 O24    1.0    0.214823    0.156306    0.872922 Biso 1.000000  O     
 C1     1.0    1.024358    0.476110    0.475166 Biso 1.000000  C     
 C2     1.0    0.468642    0.976110    0.024834 Biso 1.000000  C     
 C3     1.0   -0.031358    0.976110    0.975166 Biso 1.000000  C     
 C4     1.0    0.524358    0.476110    0.524834 Biso 1.000000  C     
 C5     1.0    0.985694    0.523732    0.978314 Biso 1.000000  C     
 C6     1.0    0.507306    0.023732    0.521686 Biso 1.000000  C     
 C7     1.0    0.007306    0.023732    0.478314 Biso 1.000000  C     
 C8     1.0    0.485694    0.523732    0.021686 Biso 1.000000  C     
 C9     1.0    0.734812    0.249308    0.198512 Biso 1.000000  C     
 C10    1.0    0.758188    0.749308    0.301488 Biso 1.000000  C     
 C11    1.0    0.258188    0.749308    0.698512 Biso 1.000000  C     
 C12    1.0    0.234812    0.249308    0.801488 Biso 1.000000  C     
 C13    1.0    0.257297    0.223190    0.311168 Biso 1.000000  C     
 C14    1.0    0.236122    0.723190    0.188832 Biso 1.000000  C     
 C15    1.0    0.735703    0.723190    0.811168 Biso 1.000000  C     
 C16    1.0    0.757671    0.223290    0.688646 Biso 1.000000  C     
 C17    1.0    0.402176    0.227766    0.210561 Biso 1.000000  C     
 C18    1.0    0.091243    0.727766    0.289439 Biso 1.000000  C     
 C19    1.0    0.590824    0.727766    0.710561 Biso 1.000000  C     
 C20    1.0    0.902550    0.227866    0.789253 Biso 1.000000  C     
 H1     1.0    0.970509    0.551094    0.529923 Biso 1.000000  H     
 H2     1.0    0.522491    0.051094    0.970077 Biso 1.000000  H     
 H3     1.0    0.022491    0.051094    0.029923 Biso 1.000000  H     
 H4     1.0    0.470509    0.551094    0.470077 Biso 1.000000  H     
 H5     1.0    0.044240    0.452372    0.037261 Biso 1.000000  H     
 H6     1.0    0.448760    0.952372    0.462739 Biso 1.000000  H     
 H7     1.0   -0.051240    0.952372    0.537261 Biso 1.000000  H     
 H8     1.0    0.544240    0.452372    0.962739 Biso 1.000000  H     
 H9     1.0    0.762264    0.247925    0.331218 Biso 1.000000  H     
 H10    1.0    0.730736    0.747925    0.168782 Biso 1.000000  H     
 H11    1.0    0.230736    0.747925    0.831218 Biso 1.000000  H     
 H12    1.0    0.262264    0.247925    0.668782 Biso 1.000000  H     
 H13    1.0    0.254099    0.291448    0.395746 Biso 1.000000  H     
 H14    1.0    0.239320    0.791448    0.104254 Biso 1.000000  H     
 H15    1.0    0.738901    0.791448    0.895746 Biso 1.000000  H     
 H16    1.0    0.754472    0.291548    0.604068 Biso 1.000000  H     
 H17    1.0    0.245139    0.134526    0.374058 Biso 1.000000  H     
 H18    1.0    0.248280    0.634526    0.125942 Biso 1.000000  H     
 H19    1.0    0.747861    0.634526    0.874058 Biso 1.000000  H     
 H20    1.0    0.745512    0.134626    0.625756 Biso 1.000000  H     
 H21    1.0    0.399734    0.163408    0.121587 Biso 1.000000  H     
 H22    1.0    0.093685    0.663408    0.378413 Biso 1.000000  H     
 H23    1.0    0.593266    0.663408    0.621587 Biso 1.000000  H     
 H24    1.0    0.900108    0.163508    0.878227 Biso 1.000000  H     
 H25    1.0    0.500124    0.200803    0.281102 Biso 1.000000  H     
 H26    1.0   -0.006705    0.700803    0.218898 Biso 1.000000  H     
 H27    1.0    0.492876    0.700803    0.781102 Biso 1.000000  H     
 H28    1.0    1.000498    0.200903    0.718712 Biso 1.000000  H     
 H29    1.0    0.419376    0.318621    0.154789 Biso 1.000000  H     
 H30    1.0    0.074043    0.818621    0.345211 Biso 1.000000  H     
 H31    1.0    0.573624    0.818621    0.654789 Biso 1.000000  H     
 H32    1.0    0.919749    0.318721    0.845025 Biso 1.000000  H     
 H33    1.0    0.116342    0.333967    0.168928 Biso 1.000000  H     
 H34    1.0    0.377077    0.833967    0.331072 Biso 1.000000  H     
 H35    1.0    0.876658    0.833967    0.668928 Biso 1.000000  H     
 H36    1.0    0.616716    0.334067    0.830886 Biso 1.000000  H     
 H37    1.0    0.017885    0.234100    0.291928 Biso 1.000000  H     
 H38    1.0    0.475534    0.734100    0.208072 Biso 1.000000  H     
 H39    1.0    0.975115    0.734100    0.791928 Biso 1.000000  H     
 H40    1.0    0.518258    0.234200    0.707886 Biso 1.000000  H     
 H41    1.0    0.115011    0.181960    0.136773 Biso 1.000000  H     
 H42    1.0    0.378408    0.681960    0.363227 Biso 1.000000  H     
 H43    1.0    0.877989    0.681960    0.636773 Biso 1.000000  H     
 H44    1.0    0.615384    0.182060    0.863041 Biso 1.000000  H     
 N1     1.0    0.116852    0.245643    0.219538 Biso 1.000000  N     
 N2     1.0    0.376567    0.745643    0.280462 Biso 1.000000  N     
 N3     1.0    0.876148    0.745643    0.719538 Biso 1.000000  N     
 N4     1.0    0.617225    0.245743    0.780276 Biso 1.000000  N     
