_cell_length_a     8.1181
_cell_length_b    11.7335
_cell_length_c     8.8220
_cell_angle_alpha 90.0
_cell_angle_beta 90.0
_cell_angle_gamma 90.0
_space_group_IT_number                 1
 loop_
 _space_group_symop_operation_xyz 
 'x, y, z' 
 loop_ 
 _atom_site_label 
 _atom_site_occupancy 
 _atom_site_fract_x 
 _atom_site_fract_y
 _atom_site_fract_z
 _atom_site_adp_type
 _atom_site_U_iso_or_equiv
 _atom_site_type_symbol
 Mg1    1.0    0.760111    0.498124    0.251832 Biso 1.000000  Mg    
 Mg2    1.0    0.716889   -0.001876    0.248168 Biso 1.000000  Mg    
 Mg3    1.0    0.216889   -0.001876    0.751832 Biso 1.000000  Mg    
 Mg4    1.0    0.260111    0.498124    0.748168 Biso 1.000000  Mg    
 O1     1.0    0.966616    0.434309    0.346567 Biso 1.000000  O     
 O2     1.0    0.510384    0.934309    0.153433 Biso 1.000000  O     
 O3     1.0    0.010384    0.934309    0.846567 Biso 1.000000  O     
 O4     1.0    0.466616    0.434309    0.653433 Biso 1.000000  O     
 O5     1.0    0.149226    0.434861    0.540166 Biso 1.000000  O     
 O6     1.0    0.327774    0.934861    0.959834 Biso 1.000000  O     
 O7     1.0    0.827774    0.934861    0.040166 Biso 1.000000  O     
 O8     1.0    0.649226    0.434861    0.459834 Biso 1.000000  O     
 O9     1.0    0.874195    0.560083    0.045532 Biso 1.000000  O     
 O10    1.0    0.602805    0.060083    0.454468 Biso 1.000000  O     
 O11    1.0    0.102805    0.060083    0.545532 Biso 1.000000  O     
 O12    1.0    0.374195    0.560083    0.954468 Biso 1.000000  O     
 O13    1.0    0.051500    0.559273    0.846544 Biso 1.000000  O     
 O14    1.0    0.425500    0.059273    0.653456 Biso 1.000000  O     
 O15    1.0   -0.074500    0.059273    0.346544 Biso 1.000000  O     
 O16    1.0    0.551500    0.559273    0.153456 Biso 1.000000  O     
 O17    1.0    0.728074    0.343303    0.129837 Biso 1.000000  O     
 O18    1.0    0.748926    0.843303    0.370163 Biso 1.000000  O     
 O19    1.0    0.248926    0.843303    0.629837 Biso 1.000000  O     
 O20    1.0    0.228074    0.343303    0.870163 Biso 1.000000  O     
 O21    1.0    0.696197    0.156111    0.125699 Biso 1.000000  O     
 O22    1.0    0.780803    0.656111    0.374301 Biso 1.000000  O     
 O23    1.0    0.280803    0.656111    0.625699 Biso 1.000000  O     
 O24    1.0    0.196197    0.156111    0.874301 Biso 1.000000  O     
 C1     1.0    1.033410    0.475951    0.472017 Biso 1.000000  C     
 C2     1.0    0.443590    0.975951    0.027983 Biso 1.000000  C     
 C3     1.0   -0.056410    0.975951    0.972017 Biso 1.000000  C     
 C4     1.0    0.533410    0.475951    0.527983 Biso 1.000000  C     
 C5     1.0    0.994746    0.523573    0.981463 Biso 1.000000  C     
 C6     1.0    0.482254    0.023573    0.518537 Biso 1.000000  C     
 C7     1.0   -0.017746    0.023573    0.481463 Biso 1.000000  C     
 C8     1.0    0.494746    0.523573    0.018537 Biso 1.000000  C     
 C9     1.0    0.726812    0.247925    0.198512 Biso 1.000000  C     
 C10    1.0    0.750188    0.747925    0.301488 Biso 1.000000  C     
 C11    1.0    0.250188    0.747925    0.698512 Biso 1.000000  C     
 C12    1.0    0.226812    0.247925    0.801488 Biso 1.000000  C     
 C13    1.0    0.255068    0.209555    0.301224 Biso 1.000000  C     
 C14    1.0    0.222490    0.709555    0.198776 Biso 1.000000  C     
 C15    1.0    0.721932    0.709555    0.801224 Biso 1.000000  C     
 C16    1.0    0.755547    0.209683    0.698530 Biso 1.000000  C     
 C17    1.0    0.393613    0.257824    0.214290 Biso 1.000000  C     
 C18    1.0    0.083946    0.757824    0.285710 Biso 1.000000  C     
 C19    1.0    0.583387    0.757824    0.714290 Biso 1.000000  C     
 C20    1.0    0.894092    0.257952    0.785464 Biso 1.000000  C     
 H1     1.0    0.984257    0.554559    0.522586 Biso 1.000000  H     
 H2     1.0    0.492743    0.054559    0.977414 Biso 1.000000  H     
 H3     1.0   -0.007257    0.054559    0.022586 Biso 1.000000  H     
 H4     1.0    0.484257    0.554559    0.477414 Biso 1.000000  H     
 H5     1.0    0.057988    0.455837    0.044598 Biso 1.000000  H     
 H6     1.0    0.419012    0.955837    0.455402 Biso 1.000000  H     
 H7     1.0   -0.080988    0.955837    0.544598 Biso 1.000000  H     
 H8     1.0    0.557988    0.455837    0.955402 Biso 1.000000  H     
 H9     1.0    0.754264    0.243774    0.331218 Biso 1.000000  H     
 H10    1.0    0.722736    0.743774    0.168782 Biso 1.000000  H     
 H11    1.0    0.222736    0.743774    0.831218 Biso 1.000000  H     
 H12    1.0    0.254264    0.243774    0.668782 Biso 1.000000  H     
 H13    1.0    0.235533    0.250609    0.411222 Biso 1.000000  H     
 H14    1.0    0.242026    0.750609    0.088778 Biso 1.000000  H     
 H15    1.0    0.741467    0.750609    0.911222 Biso 1.000000  H     
 H16    1.0    0.736012    0.250737    0.588533 Biso 1.000000  H     
 H17    1.0    0.268700    0.110182    0.320212 Biso 1.000000  H     
 H18    1.0    0.208859    0.610182    0.179788 Biso 1.000000  H     
 H19    1.0    0.708300    0.610182    0.820212 Biso 1.000000  H     
 H20    1.0    0.769179    0.110310    0.679543 Biso 1.000000  H     
 H21    1.0    0.406444    0.220770    0.101684 Biso 1.000000  H     
 H22    1.0    0.071115    0.720770    0.398316 Biso 1.000000  H     
 H23    1.0    0.570556    0.720770    0.601684 Biso 1.000000  H     
 H24    1.0    0.906923    0.220898    0.898071 Biso 1.000000  H     
 H25    1.0    0.498849    0.227453    0.272397 Biso 1.000000  H     
 H26    1.0   -0.021290    0.727453    0.227603 Biso 1.000000  H     
 H27    1.0    0.478151    0.727453    0.772397 Biso 1.000000  H     
 H28    1.0    0.999328    0.227581    0.727357 Biso 1.000000  H     
 H29    1.0    0.384515    0.358050    0.203177 Biso 1.000000  H     
 H30    1.0    0.093044    0.858050    0.296823 Biso 1.000000  H     
 H31    1.0    0.592485    0.858050    0.703177 Biso 1.000000  H     
 H32    1.0    0.884993    0.358178    0.796578 Biso 1.000000  H     
 H33    1.0    0.083123    0.330046    0.211518 Biso 1.000000  H     
 H34    1.0    0.394436    0.830046    0.288482 Biso 1.000000  H     
 H35    1.0    0.893877    0.830046    0.711518 Biso 1.000000  H     
 H36    1.0    0.583601    0.330174    0.788237 Biso 1.000000  H     
 H37    1.0    0.016529    0.194051    0.278665 Biso 1.000000  H     
 H38    1.0    0.461029    0.694051    0.221335 Biso 1.000000  H     
 H39    1.0    0.960471    0.694051    0.778665 Biso 1.000000  H     
 H40    1.0    0.517008    0.194179    0.721089 Biso 1.000000  H     
 H41    1.0    0.122190    0.197788    0.113161 Biso 1.000000  H     
 H42    1.0    0.355368    0.697788    0.386839 Biso 1.000000  H     
 H43    1.0    0.854810    0.697788    0.613161 Biso 1.000000  H     
 H44    1.0    0.622669    0.197916    0.886594 Biso 1.000000  H     
 N1     1.0    0.108799    0.235723    0.219601 Biso 1.000000  N     
 N2     1.0    0.368760    0.735723    0.280399 Biso 1.000000  N     
 N3     1.0    0.868201    0.735723    0.719601 Biso 1.000000  N     
 N4     1.0    0.609277    0.235851    0.780154 Biso 1.000000  N     
