_cell_length_a                         12.587100
_cell_length_b                         12.587100
_cell_length_c                         8.223700
_cell_angle_alpha                      90.000000
_cell_angle_beta                       90.000000
_cell_angle_gamma                      120.000008
_space_group_IT_number                 1
 loop_
 _space_group_symop_operation_xyz 
 'x, y, z' 
 loop_ 
 _atom_site_label 
 _atom_site_occupancy 
 _atom_site_fract_x 
 _atom_site_fract_y
 _atom_site_fract_z
 _atom_site_adp_type
 _atom_site_U_iso_or_equiv
 _atom_site_type_symbol
 Co1    1.0    0.162968    0.163682    0.754750 Biso 1.000000  Co    
 Co2    1.0    0.830714    0.497032    0.754750 Biso 1.000000  Co    
 Co3    1.0    0.496318    0.829286    0.754750 Biso 1.000000  Co    
 Co4    1.0    0.497032    0.496318    0.254750 Biso 1.000000  Co    
 Co5    1.0    0.829286    0.162968    0.254750 Biso 1.000000  Co    
 Co6    1.0    0.163682    0.830714    0.254750 Biso 1.000000  Co    
 O1     1.0    0.096780    0.255554    0.898500 Biso 1.000000  O     
 O2     1.0    0.988774    0.563220    0.898500 Biso 1.000000  O     
 O3     1.0    0.404446    0.671226    0.898500 Biso 1.000000  O     
 O4     1.0    0.563220    0.404446    0.398500 Biso 1.000000  O     
 O5     1.0    0.671226    0.096780    0.398500 Biso 1.000000  O     
 O6     1.0    0.255554    0.988774    0.398500 Biso 1.000000  O     
 O7     1.0    0.987446    0.255896    0.110800 Biso 1.000000  O     
 O8     1.0    0.098450    0.672554    0.110800 Biso 1.000000  O     
 O9     1.0    0.404104    0.561550    0.110800 Biso 1.000000  O     
 O10    1.0    0.672554    0.404104    0.610800 Biso 1.000000  O     
 O11    1.0    0.561550    0.987446    0.610800 Biso 1.000000  O     
 O12    1.0    0.255896    0.098450    0.610800 Biso 1.000000  O     
 O13    1.0    0.320962    0.229198    0.898652 Biso 1.000000  O     
 O14    1.0    0.738236    0.339038    0.898652 Biso 1.000000  O     
 O15    1.0    0.430802    0.921764    0.898652 Biso 1.000000  O     
 O16    1.0    0.339038    0.430802    0.398652 Biso 1.000000  O     
 O17    1.0    0.921764    0.320962    0.398652 Biso 1.000000  O     
 O18    1.0    0.229198    0.738236    0.398652 Biso 1.000000  O     
 O19    1.0    0.431128    0.338022    0.111332 Biso 1.000000  O     
 O20    1.0    0.736894    0.228872    0.111332 Biso 1.000000  O     
 O21    1.0    0.321978    0.923106    0.111332 Biso 1.000000  O     
 O22    1.0    0.228872    0.321978    0.611332 Biso 1.000000  O     
 O23    1.0    0.923106    0.431128    0.611332 Biso 1.000000  O     
 O24    1.0    0.338022    0.736894    0.611332 Biso 1.000000  O     
 O25    1.0    0.070034    0.005356    0.898082 Biso 1.000000  O     
 O26    1.0    0.765322    0.589966    0.898082 Biso 1.000000  O     
 O27    1.0    0.654644    0.894678    0.898082 Biso 1.000000  O     
 O28    1.0    0.589966    0.654644    0.398082 Biso 1.000000  O     
 O29    1.0    0.894678    0.070034    0.398082 Biso 1.000000  O     
 O30    1.0    0.005356    0.765322    0.398082 Biso 1.000000  O     
 O31    1.0    0.071786    0.896712    0.110242 Biso 1.000000  O     
 O32    1.0    0.654926    0.588214    0.110242 Biso 1.000000  O     
 O33    1.0    0.763288    0.005074    0.110242 Biso 1.000000  O     
 O34    1.0    0.588214    0.763288    0.610242 Biso 1.000000  O     
 O35    1.0    0.005074    0.071786    0.610242 Biso 1.000000  O     
 O36    1.0    0.896712    0.654926    0.610242 Biso 1.000000  O     
 C1     1.0    0.016380    0.203300    0.005500 Biso 1.000000  C     
 C2     1.0    0.016920    0.643620    0.005500 Biso 1.000000  C     
 C3     1.0    0.456700    0.643080    0.005500 Biso 1.000000  C     
 C4     1.0    0.643620    0.456700    0.505500 Biso 1.000000  C     
 C5     1.0    0.643080    0.016380    0.505500 Biso 1.000000  C     
 C6     1.0    0.203300    0.016920    0.505500 Biso 1.000000  C     
 C7     1.0    0.348900    0.308600    0.006960 Biso 1.000000  C     
 C8     1.0    0.789700    0.311100    0.006960 Biso 1.000000  C     
 C9     1.0    0.351400    0.870300    0.006960 Biso 1.000000  C     
 C10    1.0    0.311100    0.351400    0.506960 Biso 1.000000  C     
 C11    1.0    0.870300    0.348900    0.506960 Biso 1.000000  C     
 C12    1.0    0.308600    0.789700    0.506960 Biso 1.000000  C     
 C13    1.0    0.123100    0.975700    1.001700 Biso 1.000000  C     
 C14    1.0    0.682600    0.536900    1.001700 Biso 1.000000  C     
 C15    1.0    0.684300    0.977400    1.001700 Biso 1.000000  C     
 C16    1.0    0.536900    0.684300    0.501700 Biso 1.000000  C     
 C17    1.0    0.977400    0.123100    0.501700 Biso 1.000000  C     
 C18    1.0    0.975700    0.682600    0.501700 Biso 1.000000  C     
 H1     1.0    0.973800    0.116500    0.006780 Biso 1.000000  H     
 H2     1.0    0.972700    0.686200    0.006780 Biso 1.000000  H     
 H3     1.0    0.543500    0.687300    0.006780 Biso 1.000000  H     
 H4     1.0    0.686200    0.543500    0.506780 Biso 1.000000  H     
 H5     1.0    0.687300    0.973800    0.506780 Biso 1.000000  H     
 H6     1.0    0.116500    0.972700    0.506780 Biso 1.000000  H     
 H7     1.0    0.304240    0.349640    0.010120 Biso 1.000000  H     
 H8     1.0    0.875400    0.355760    0.010120 Biso 1.000000  H     
 H9     1.0    0.310360    0.784600    0.010120 Biso 1.000000  H     
 H10    1.0    0.355760    0.310360    0.510120 Biso 1.000000  H     
 H11    1.0    0.784600    0.304240    0.510120 Biso 1.000000  H     
 H12    1.0    0.349640    0.875400    0.510120 Biso 1.000000  H     
 H13    1.0    0.207900    0.015800    0.997680 Biso 1.000000  H     
 H14    1.0    0.637900    0.452100    0.997680 Biso 1.000000  H     
 H15    1.0    0.644200    0.022100    0.997680 Biso 1.000000  H     
 H16    1.0    0.452100    0.644200    0.497680 Biso 1.000000  H     
 H17    1.0    0.022100    0.207900    0.497680 Biso 1.000000  H     
 H18    1.0    0.015800    0.637900    0.497680 Biso 1.000000  H     
 H19    1.0    0.129756    0.419209    0.757510 Biso 1.000000  H     
 H20    1.0    0.186866    0.511996    0.861082 Biso 1.000000  H     
 H21    1.0    0.229781    0.521384    0.710929 Biso 1.000000  H     
 H22    1.0    0.567847    0.215850    0.295505 Biso 1.000000  H     
 H23    1.0    0.510737    0.123063    0.191934 Biso 1.000000  H     
 H24    1.0    0.467822    0.113676    0.342087 Biso 1.000000  H     
 H25    1.0    0.117865    0.526823    0.730155 Biso 1.000000  H     
 H26    1.0    0.451199    0.193489    0.230155 Biso 1.000000  H     
 H27    1.0    0.520580    0.181517    0.862215 Biso 1.000000  H     
 H28    1.0    0.561114    0.186707    0.708642 Biso 1.000000  H     
 H29    1.0    0.458339    0.085670    0.760318 Biso 1.000000  H     
 H30    1.0    0.172775    0.454413    0.191900 Biso 1.000000  H     
 H31    1.0    0.132240    0.449223    0.345474 Biso 1.000000  H     
 H32    1.0    0.235015    0.550259    0.293797 Biso 1.000000  H     
 H33    1.0    0.451518    0.195915    0.731014 Biso 1.000000  H     
 H34    1.0    0.118184    0.529249    0.231014 Biso 1.000000  H     
 H35    1.0    0.850665    0.851061    0.145453 Biso 1.000000  H     
 H36    1.0    0.754865    0.771931    0.256157 Biso 1.000000  H     
 H37    1.0    0.848765    0.891715    0.308561 Biso 1.000000  H     
 H38    1.0    0.785532    0.825410    0.827994 Biso 1.000000  H     
 H39    1.0    0.881332    0.904540    0.717290 Biso 1.000000  H     
 H40    1.0    0.787432    0.784756    0.664886 Biso 1.000000  H     
 H41    1.0    0.877563    0.797087    0.280295 Biso 1.000000  H     
 H42    1.0    0.877563    0.797087    0.780295 Biso 1.000000  H     
 N1     1.0    0.163325    0.496672    0.762942 Biso 1.000000  N     
 N2     1.0    0.496659    0.163338    0.262942 Biso 1.000000  N     
 N3     1.0    0.496664    0.163336    0.764635 Biso 1.000000  N     
 N4     1.0    0.163330    0.496670    0.264635 Biso 1.000000  N     
 N5     1.0    0.829992    0.830006    0.245438 Biso 1.000000  N     
 N6     1.0    0.829992    0.830006    0.745438 Biso 1.000000  N     
