_cell_length_a                         12.587100
_cell_length_b                         12.587100
_cell_length_c                         8.223700
_cell_angle_alpha                      90.000000
_cell_angle_beta                       90.000000
_cell_angle_gamma                      120.000008
_space_group_IT_number                 1
 loop_
 _space_group_symop_operation_xyz 
 'x, y, z' 
 loop_ 
 _atom_site_label 
 _atom_site_occupancy 
 _atom_site_fract_x 
 _atom_site_fract_y
 _atom_site_fract_z
 _atom_site_adp_type
 _atom_site_U_iso_or_equiv
 _atom_site_type_symbol
 Co1    1.0    0.162254    0.164396    0.754250 Biso 1.000000  Co    
 Co2    1.0    0.832142    0.497746    0.754250 Biso 1.000000  Co    
 Co3    1.0    0.495604    0.827858    0.754250 Biso 1.000000  Co    
 Co4    1.0    0.497746    0.495604    0.254250 Biso 1.000000  Co    
 Co5    1.0    0.827858    0.162254    0.254250 Biso 1.000000  Co    
 Co6    1.0    0.164396    0.832142    0.254250 Biso 1.000000  Co    
 O1     1.0    0.095110    0.255212    0.897800 Biso 1.000000  O     
 O2     1.0    0.990102    0.564890    0.897800 Biso 1.000000  O     
 O3     1.0    0.404788    0.669898    0.897800 Biso 1.000000  O     
 O4     1.0    0.564890    0.404788    0.397800 Biso 1.000000  O     
 O5     1.0    0.669898    0.095110    0.397800 Biso 1.000000  O     
 O6     1.0    0.255212    0.990102    0.397800 Biso 1.000000  O     
 O7     1.0    0.986118    0.256238    0.110100 Biso 1.000000  O     
 O8     1.0    0.100120    0.673882    0.110100 Biso 1.000000  O     
 O9     1.0    0.403762    0.559880    0.110100 Biso 1.000000  O     
 O10    1.0    0.673882    0.403762    0.610100 Biso 1.000000  O     
 O11    1.0    0.559880    0.986118    0.610100 Biso 1.000000  O     
 O12    1.0    0.256238    0.100120    0.610100 Biso 1.000000  O     
 O13    1.0    0.319946    0.229524    0.898636 Biso 1.000000  O     
 O14    1.0    0.739578    0.340054    0.898636 Biso 1.000000  O     
 O15    1.0    0.430476    0.920422    0.898636 Biso 1.000000  O     
 O16    1.0    0.340054    0.430476    0.398636 Biso 1.000000  O     
 O17    1.0    0.920422    0.319946    0.398636 Biso 1.000000  O     
 O18    1.0    0.229524    0.739578    0.398636 Biso 1.000000  O     
 O19    1.0    0.431454    0.337006    0.111316 Biso 1.000000  O     
 O20    1.0    0.735552    0.228546    0.111316 Biso 1.000000  O     
 O21    1.0    0.322994    0.924448    0.111316 Biso 1.000000  O     
 O22    1.0    0.228546    0.322994    0.611316 Biso 1.000000  O     
 O23    1.0    0.924448    0.431454    0.611316 Biso 1.000000  O     
 O24    1.0    0.337006    0.735552    0.611316 Biso 1.000000  O     
 O25    1.0    0.068282    0.005638    0.896406 Biso 1.000000  O     
 O26    1.0    0.767356    0.591718    0.896406 Biso 1.000000  O     
 O27    1.0    0.654362    0.892644    0.896406 Biso 1.000000  O     
 O28    1.0    0.591718    0.654362    0.396406 Biso 1.000000  O     
 O29    1.0    0.892644    0.068282    0.396406 Biso 1.000000  O     
 O30    1.0    0.005638    0.767356    0.396406 Biso 1.000000  O     
 O31    1.0    0.073538    0.898746    0.108566 Biso 1.000000  O     
 O32    1.0    0.655208    0.586462    0.108566 Biso 1.000000  O     
 O33    1.0    0.761254    0.004792    0.108566 Biso 1.000000  O     
 O34    1.0    0.586462    0.761254    0.608566 Biso 1.000000  O     
 O35    1.0    0.004792    0.073538    0.608566 Biso 1.000000  O     
 O36    1.0    0.898746    0.655208    0.608566 Biso 1.000000  O     
 C1     1.0    0.015840    0.203300    0.006500 Biso 1.000000  C     
 C2     1.0    0.017460    0.644160    0.006500 Biso 1.000000  C     
 C3     1.0    0.456700    0.642540    0.006500 Biso 1.000000  C     
 C4     1.0    0.644160    0.456700    0.506500 Biso 1.000000  C     
 C5     1.0    0.642540    0.015840    0.506500 Biso 1.000000  C     
 C6     1.0    0.203300    0.017460    0.506500 Biso 1.000000  C     
 C7     1.0    0.346400    0.306100    0.010880 Biso 1.000000  C     
 C8     1.0    0.789700    0.313600    0.010880 Biso 1.000000  C     
 C9     1.0    0.353900    0.870300    0.010880 Biso 1.000000  C     
 C10    1.0    0.313600    0.353900    0.510880 Biso 1.000000  C     
 C11    1.0    0.870300    0.346400    0.510880 Biso 1.000000  C     
 C12    1.0    0.306100    0.789700    0.510880 Biso 1.000000  C     
 C13    1.0    0.123100    0.974000    0.995100 Biso 1.000000  C     
 C14    1.0    0.680900    0.536900    0.995100 Biso 1.000000  C     
 C15    1.0    0.686000    0.979100    0.995100 Biso 1.000000  C     
 C16    1.0    0.536900    0.686000    0.495100 Biso 1.000000  C     
 C17    1.0    0.979100    0.123100    0.495100 Biso 1.000000  C     
 C18    1.0    0.974000    0.680900    0.495100 Biso 1.000000  C     
 H1     1.0    0.974900    0.116500    0.010340 Biso 1.000000  H     
 H2     1.0    0.971600    0.685100    0.010340 Biso 1.000000  H     
 H3     1.0    0.543500    0.688400    0.010340 Biso 1.000000  H     
 H4     1.0    0.685100    0.543500    0.510340 Biso 1.000000  H     
 H5     1.0    0.688400    0.974900    0.510340 Biso 1.000000  H     
 H6     1.0    0.116500    0.971600    0.510340 Biso 1.000000  H     
 H7     1.0    0.298120    0.343520    0.020360 Biso 1.000000  H     
 H8     1.0    0.875400    0.361880    0.020360 Biso 1.000000  H     
 H9     1.0    0.316480    0.784600    0.020360 Biso 1.000000  H     
 H10    1.0    0.361880    0.316480    0.520360 Biso 1.000000  H     
 H11    1.0    0.784600    0.298120    0.520360 Biso 1.000000  H     
 H12    1.0    0.343520    0.875400    0.520360 Biso 1.000000  H     
 H13    1.0    0.207900    0.009500    0.983040 Biso 1.000000  H     
 H14    1.0    0.631600    0.452100    0.983040 Biso 1.000000  H     
 H15    1.0    0.650500    0.028400    0.983040 Biso 1.000000  H     
 H16    1.0    0.452100    0.650500    0.483040 Biso 1.000000  H     
 H17    1.0    0.028400    0.207900    0.483040 Biso 1.000000  H     
 H18    1.0    0.009500    0.631600    0.483040 Biso 1.000000  H     
 H19    1.0    0.141261    0.422921    0.804293 Biso 1.000000  H     
 H20    1.0    0.151506    0.524600    0.868304 Biso 1.000000  H     
 H21    1.0    0.240841    0.530675    0.775504 Biso 1.000000  H     
 H22    1.0    0.547812    0.229210    0.327775 Biso 1.000000  H     
 H23    1.0    0.537566    0.127531    0.263764 Biso 1.000000  H     
 H24    1.0    0.448231    0.121455    0.356564 Biso 1.000000  H     
 H25    1.0    0.128180    0.506182    0.694681 Biso 1.000000  H     
 H26    1.0    0.461514    0.172848    0.194681 Biso 1.000000  H     
 H27    1.0    0.485381    0.194320    0.867369 Biso 1.000000  H     
 H28    1.0    0.573726    0.195738    0.772455 Biso 1.000000  H     
 H29    1.0    0.470418    0.088522    0.804393 Biso 1.000000  H     
 H30    1.0    0.200968    0.458066    0.262108 Biso 1.000000  H     
 H31    1.0    0.112624    0.456649    0.357022 Biso 1.000000  H     
 H32    1.0    0.215932    0.563864    0.325084 Biso 1.000000  H     
 H33    1.0    0.460999    0.173639    0.694195 Biso 1.000000  H     
 H34    1.0    0.127665    0.506973    0.194195 Biso 1.000000  H     
 H35    1.0    0.880288    0.843899    0.147093 Biso 1.000000  H     
 H36    1.0    0.761448    0.762127    0.215512 Biso 1.000000  H     
 H37    1.0    0.820365    0.891779    0.247900 Biso 1.000000  H     
 H38    1.0    0.761113    0.821304    0.759910 Biso 1.000000  H     
 H39    1.0    0.879952    0.903076    0.691491 Biso 1.000000  H     
 H40    1.0    0.821036    0.773425    0.659103 Biso 1.000000  H     
 H41    1.0    0.867165    0.819602    0.317573 Biso 1.000000  H     
 H42    1.0    0.867165    0.819602    0.817573 Biso 1.000000  H     
 N1     1.0    0.163327    0.496669    0.780518 Biso 1.000000  N     
 N2     1.0    0.496661    0.163335    0.280518 Biso 1.000000  N     
 N3     1.0    0.496664    0.163334    0.782216 Biso 1.000000  N     
 N4     1.0    0.163330    0.496668    0.282216 Biso 1.000000  N     
 N5     1.0    0.829993    0.830002    0.226316 Biso 1.000000  N     
 N6     1.0    0.829993    0.830002    0.726316 Biso 1.000000  N     
