_cell_length_a                         12.587100
_cell_length_b                         12.587100
_cell_length_c                         8.223700
_cell_angle_alpha                      90.000000
_cell_angle_beta                       90.000000
_cell_angle_gamma                      120.000008
_space_group_IT_number                 1
 loop_
 _space_group_symop_operation_xyz 
 'x, y, z' 
 loop_ 
 _atom_site_label 
 _atom_site_occupancy 
 _atom_site_fract_x 
 _atom_site_fract_y
 _atom_site_fract_z
 _atom_site_adp_type
 _atom_site_U_iso_or_equiv
 _atom_site_type_symbol
 Co1    1.0    0.164396    0.162254    0.755750 Biso 1.000000  Co    
 Co2    1.0    0.827858    0.495604    0.755750 Biso 1.000000  Co    
 Co3    1.0    0.497746    0.832142    0.755750 Biso 1.000000  Co    
 Co4    1.0    0.495604    0.497746    0.255750 Biso 1.000000  Co    
 Co5    1.0    0.832142    0.164396    0.255750 Biso 1.000000  Co    
 Co6    1.0    0.162254    0.827858    0.255750 Biso 1.000000  Co    
 O1     1.0    0.100120    0.256238    0.899900 Biso 1.000000  O     
 O2     1.0    0.986118    0.559880    0.899900 Biso 1.000000  O     
 O3     1.0    0.403762    0.673882    0.899900 Biso 1.000000  O     
 O4     1.0    0.559880    0.403762    0.399900 Biso 1.000000  O     
 O5     1.0    0.673882    0.100120    0.399900 Biso 1.000000  O     
 O6     1.0    0.256238    0.986118    0.399900 Biso 1.000000  O     
 O7     1.0    0.990102    0.255212    0.112200 Biso 1.000000  O     
 O8     1.0    0.095110    0.669898    0.112200 Biso 1.000000  O     
 O9     1.0    0.404788    0.564890    0.112200 Biso 1.000000  O     
 O10    1.0    0.669898    0.404788    0.612200 Biso 1.000000  O     
 O11    1.0    0.564890    0.990102    0.612200 Biso 1.000000  O     
 O12    1.0    0.255212    0.095110    0.612200 Biso 1.000000  O     
 O13    1.0    0.322994    0.228546    0.898684 Biso 1.000000  O     
 O14    1.0    0.735552    0.337006    0.898684 Biso 1.000000  O     
 O15    1.0    0.431454    0.924448    0.898684 Biso 1.000000  O     
 O16    1.0    0.337006    0.431454    0.398684 Biso 1.000000  O     
 O17    1.0    0.924448    0.322994    0.398684 Biso 1.000000  O     
 O18    1.0    0.228546    0.735552    0.398684 Biso 1.000000  O     
 O19    1.0    0.430476    0.340054    0.111364 Biso 1.000000  O     
 O20    1.0    0.739578    0.229524    0.111364 Biso 1.000000  O     
 O21    1.0    0.319946    0.920422    0.111364 Biso 1.000000  O     
 O22    1.0    0.229524    0.319946    0.611364 Biso 1.000000  O     
 O23    1.0    0.920422    0.430476    0.611364 Biso 1.000000  O     
 O24    1.0    0.340054    0.739578    0.611364 Biso 1.000000  O     
 O25    1.0    0.073538    0.004792    0.901434 Biso 1.000000  O     
 O26    1.0    0.761254    0.586462    0.901434 Biso 1.000000  O     
 O27    1.0    0.655208    0.898746    0.901434 Biso 1.000000  O     
 O28    1.0    0.586462    0.655208    0.401434 Biso 1.000000  O     
 O29    1.0    0.898746    0.073538    0.401434 Biso 1.000000  O     
 O30    1.0    0.004792    0.761254    0.401434 Biso 1.000000  O     
 O31    1.0    0.068282    0.892644    0.113594 Biso 1.000000  O     
 O32    1.0    0.654362    0.591718    0.113594 Biso 1.000000  O     
 O33    1.0    0.767356    0.005638    0.113594 Biso 1.000000  O     
 O34    1.0    0.591718    0.767356    0.613594 Biso 1.000000  O     
 O35    1.0    0.005638    0.068282    0.613594 Biso 1.000000  O     
 O36    1.0    0.892644    0.654362    0.613594 Biso 1.000000  O     
 C1     1.0    0.017460    0.203300    0.003500 Biso 1.000000  C     
 C2     1.0    0.015840    0.642540    0.003500 Biso 1.000000  C     
 C3     1.0    0.456700    0.644160    0.003500 Biso 1.000000  C     
 C4     1.0    0.642540    0.456700    0.503500 Biso 1.000000  C     
 C5     1.0    0.644160    0.017460    0.503500 Biso 1.000000  C     
 C6     1.0    0.203300    0.015840    0.503500 Biso 1.000000  C     
 C7     1.0    0.353900    0.313600   -0.000880 Biso 1.000000  C     
 C8     1.0    0.789700    0.306100   -0.000880 Biso 1.000000  C     
 C9     1.0    0.346400    0.870300   -0.000880 Biso 1.000000  C     
 C10    1.0    0.306100    0.346400    0.499120 Biso 1.000000  C     
 C11    1.0    0.870300    0.353900    0.499120 Biso 1.000000  C     
 C12    1.0    0.313600    0.789700    0.499120 Biso 1.000000  C     
 C13    1.0    0.123100    0.979100    1.014900 Biso 1.000000  C     
 C14    1.0    0.686000    0.536900    1.014900 Biso 1.000000  C     
 C15    1.0    0.680900    0.974000    1.014900 Biso 1.000000  C     
 C16    1.0    0.536900    0.680900    0.514900 Biso 1.000000  C     
 C17    1.0    0.974000    0.123100    0.514900 Biso 1.000000  C     
 C18    1.0    0.979100    0.686000    0.514900 Biso 1.000000  C     
 H1     1.0    0.971600    0.116500   -0.000340 Biso 1.000000  H     
 H2     1.0    0.974900    0.688400   -0.000340 Biso 1.000000  H     
 H3     1.0    0.543500    0.685100   -0.000340 Biso 1.000000  H     
 H4     1.0    0.688400    0.543500    0.499660 Biso 1.000000  H     
 H5     1.0    0.685100    0.971600    0.499660 Biso 1.000000  H     
 H6     1.0    0.116500    0.974900    0.499660 Biso 1.000000  H     
 H7     1.0    0.316480    0.361880   -0.010360 Biso 1.000000  H     
 H8     1.0    0.875400    0.343520   -0.010360 Biso 1.000000  H     
 H9     1.0    0.298120    0.784600   -0.010360 Biso 1.000000  H     
 H10    1.0    0.343520    0.298120    0.489640 Biso 1.000000  H     
 H11    1.0    0.784600    0.316480    0.489640 Biso 1.000000  H     
 H12    1.0    0.361880    0.875400    0.489640 Biso 1.000000  H     
 H13    1.0    0.207900    0.028400    1.026960 Biso 1.000000  H     
 H14    1.0    0.650500    0.452100    1.026960 Biso 1.000000  H     
 H15    1.0    0.631600    0.009500    1.026960 Biso 1.000000  H     
 H16    1.0    0.452100    0.631600    0.526960 Biso 1.000000  H     
 H17    1.0    0.009500    0.207900    0.526960 Biso 1.000000  H     
 H18    1.0    0.028400    0.650500    0.526960 Biso 1.000000  H     
 H19    1.0    0.098096    0.444189    0.680535 Biso 1.000000  H     
 H20    1.0    0.201097    0.457676    0.744545 Biso 1.000000  H     
 H21    1.0    0.204269    0.545676    0.651746 Biso 1.000000  H     
 H22    1.0    0.570880    0.187504    0.204017 Biso 1.000000  H     
 H23    1.0    0.467879    0.174017    0.140006 Biso 1.000000  H     
 H24    1.0    0.464707    0.086017    0.232806 Biso 1.000000  H     
 H25    1.0    0.152480    0.530894    0.813628 Biso 1.000000  H     
 H26    1.0    0.485814    0.197560    0.313628 Biso 1.000000  H     
 H27    1.0    0.533338    0.123783    0.749582 Biso 1.000000  H     
 H28    1.0    0.537700    0.213528    0.654668 Biso 1.000000  H     
 H29    1.0    0.428859    0.112131    0.686606 Biso 1.000000  H     
 H30    1.0    0.133259    0.509179    0.144321 Biso 1.000000  H     
 H31    1.0    0.128896    0.419434    0.239235 Biso 1.000000  H     
 H32    1.0    0.237738    0.520832    0.207297 Biso 1.000000  H     
 H33    1.0    0.487737    0.199931    0.817495 Biso 1.000000  H     
 H34    1.0    0.154403    0.533265    0.317495 Biso 1.000000  H     
 H35    1.0    0.838696    0.898887    0.250090 Biso 1.000000  H     
 H36    1.0    0.756924    0.780048    0.318509 Biso 1.000000  H     
 H37    1.0    0.886575    0.838964    0.350897 Biso 1.000000  H     
 H38    1.0    0.816101    0.779712    0.862907 Biso 1.000000  H     
 H39    1.0    0.897873    0.898552    0.794488 Biso 1.000000  H     
 H40    1.0    0.768221    0.839635    0.762100 Biso 1.000000  H     
 H41    1.0    0.840398    0.792835    0.192427 Biso 1.000000  H     
 H42    1.0    0.840398    0.792835    0.692427 Biso 1.000000  H     
 N1     1.0    0.163331    0.496673    0.727792 Biso 1.000000  N     
 N2     1.0    0.496665    0.163339    0.227792 Biso 1.000000  N     
 N3     1.0    0.496666    0.163336    0.729474 Biso 1.000000  N     
 N4     1.0    0.163332    0.496670    0.229474 Biso 1.000000  N     
 N5     1.0    0.829998    0.830007    0.283684 Biso 1.000000  N     
 N6     1.0    0.829998    0.830007    0.783684 Biso 1.000000  N     
