_cell_length_a                         12.587100
_cell_length_b                         12.587100
_cell_length_c                         8.223700
_cell_angle_alpha                      90.000000
_cell_angle_beta                       90.000000
_cell_angle_gamma                      120.000008
_space_group_IT_number                 1
 loop_
 _space_group_symop_operation_xyz 
 'x, y, z' 
 loop_ 
 _atom_site_label 
 _atom_site_occupancy 
 _atom_site_fract_x 
 _atom_site_fract_y
 _atom_site_fract_z
 _atom_site_adp_type
 _atom_site_U_iso_or_equiv
 _atom_site_type_symbol
 Co1    1.0    0.164753    0.161897    0.756000 Biso 1.000000  Co    
 Co2    1.0    0.827144    0.495247    0.756000 Biso 1.000000  Co    
 Co3    1.0    0.498103    0.832856    0.756000 Biso 1.000000  Co    
 Co4    1.0    0.495247    0.498103    0.256000 Biso 1.000000  Co    
 Co5    1.0    0.832856    0.164753    0.256000 Biso 1.000000  Co    
 Co6    1.0    0.161897    0.827144    0.256000 Biso 1.000000  Co    
 O1     1.0    0.100955    0.256409    0.900250 Biso 1.000000  O     
 O2     1.0    0.985454    0.559045    0.900250 Biso 1.000000  O     
 O3     1.0    0.403591    0.674546    0.900250 Biso 1.000000  O     
 O4     1.0    0.559045    0.403591    0.400250 Biso 1.000000  O     
 O5     1.0    0.674546    0.100955    0.400250 Biso 1.000000  O     
 O6     1.0    0.256409    0.985454    0.400250 Biso 1.000000  O     
 O7     1.0    0.990766    0.255041    0.112550 Biso 1.000000  O     
 O8     1.0    0.094275    0.669234    0.112550 Biso 1.000000  O     
 O9     1.0    0.404959    0.565725    0.112550 Biso 1.000000  O     
 O10    1.0    0.669234    0.404959    0.612550 Biso 1.000000  O     
 O11    1.0    0.565725    0.990766    0.612550 Biso 1.000000  O     
 O12    1.0    0.255041    0.094275    0.612550 Biso 1.000000  O     
 O13    1.0    0.323502    0.228383    0.898692 Biso 1.000000  O     
 O14    1.0    0.734881    0.336498    0.898692 Biso 1.000000  O     
 O15    1.0    0.431617    0.925119    0.898692 Biso 1.000000  O     
 O16    1.0    0.336498    0.431617    0.398692 Biso 1.000000  O     
 O17    1.0    0.925119    0.323502    0.398692 Biso 1.000000  O     
 O18    1.0    0.228383    0.734881    0.398692 Biso 1.000000  O     
 O19    1.0    0.430313    0.340562    0.111372 Biso 1.000000  O     
 O20    1.0    0.740249    0.229687    0.111372 Biso 1.000000  O     
 O21    1.0    0.319438    0.919751    0.111372 Biso 1.000000  O     
 O22    1.0    0.229687    0.319438    0.611372 Biso 1.000000  O     
 O23    1.0    0.919751    0.430313    0.611372 Biso 1.000000  O     
 O24    1.0    0.340562    0.740249    0.611372 Biso 1.000000  O     
 O25    1.0    0.074414    0.004651    0.902272 Biso 1.000000  O     
 O26    1.0    0.760237    0.585586    0.902272 Biso 1.000000  O     
 O27    1.0    0.655349    0.899763    0.902272 Biso 1.000000  O     
 O28    1.0    0.585586    0.655349    0.402272 Biso 1.000000  O     
 O29    1.0    0.899763    0.074414    0.402272 Biso 1.000000  O     
 O30    1.0    0.004651    0.760237    0.402272 Biso 1.000000  O     
 O31    1.0    0.067406    0.891627    0.114432 Biso 1.000000  O     
 O32    1.0    0.654221    0.592594    0.114432 Biso 1.000000  O     
 O33    1.0    0.768373    0.005779    0.114432 Biso 1.000000  O     
 O34    1.0    0.592594    0.768373    0.614432 Biso 1.000000  O     
 O35    1.0    0.005779    0.067406    0.614432 Biso 1.000000  O     
 O36    1.0    0.891627    0.654221    0.614432 Biso 1.000000  O     
 C1     1.0    0.017730    0.203300    0.003000 Biso 1.000000  C     
 C2     1.0    0.015570    0.642270    0.003000 Biso 1.000000  C     
 C3     1.0    0.456700    0.644430    0.003000 Biso 1.000000  C     
 C4     1.0    0.642270    0.456700    0.503000 Biso 1.000000  C     
 C5     1.0    0.644430    0.017730    0.503000 Biso 1.000000  C     
 C6     1.0    0.203300    0.015570    0.503000 Biso 1.000000  C     
 C7     1.0    0.355150    0.314850   -0.002840 Biso 1.000000  C     
 C8     1.0    0.789700    0.304850   -0.002840 Biso 1.000000  C     
 C9     1.0    0.345150    0.870300   -0.002840 Biso 1.000000  C     
 C10    1.0    0.304850    0.345150    0.497160 Biso 1.000000  C     
 C11    1.0    0.870300    0.355150    0.497160 Biso 1.000000  C     
 C12    1.0    0.314850    0.789700    0.497160 Biso 1.000000  C     
 C13    1.0    0.123100    0.979950    1.018200 Biso 1.000000  C     
 C14    1.0    0.686850    0.536900    1.018200 Biso 1.000000  C     
 C15    1.0    0.680050    0.973150    1.018200 Biso 1.000000  C     
 C16    1.0    0.536900    0.680050    0.518200 Biso 1.000000  C     
 C17    1.0    0.973150    0.123100    0.518200 Biso 1.000000  C     
 C18    1.0    0.979950    0.686850    0.518200 Biso 1.000000  C     
 H1     1.0    0.971050    0.116500   -0.002120 Biso 1.000000  H     
 H2     1.0    0.975450    0.688950   -0.002120 Biso 1.000000  H     
 H3     1.0    0.543500    0.684550   -0.002120 Biso 1.000000  H     
 H4     1.0    0.688950    0.543500    0.497880 Biso 1.000000  H     
 H5     1.0    0.684550    0.971050    0.497880 Biso 1.000000  H     
 H6     1.0    0.116500    0.975450    0.497880 Biso 1.000000  H     
 H7     1.0    0.319540    0.364940   -0.015480 Biso 1.000000  H     
 H8     1.0    0.875400    0.340460   -0.015480 Biso 1.000000  H     
 H9     1.0    0.295060    0.784600   -0.015480 Biso 1.000000  H     
 H10    1.0    0.340460    0.295060    0.484520 Biso 1.000000  H     
 H11    1.0    0.784600    0.319540    0.484520 Biso 1.000000  H     
 H12    1.0    0.364940    0.875400    0.484520 Biso 1.000000  H     
 H13    1.0    0.207900    0.031550    1.034280 Biso 1.000000  H     
 H14    1.0    0.653650    0.452100    1.034280 Biso 1.000000  H     
 H15    1.0    0.628450    0.006350    1.034280 Biso 1.000000  H     
 H16    1.0    0.452100    0.628450    0.534280 Biso 1.000000  H     
 H17    1.0    0.006350    0.207900    0.534280 Biso 1.000000  H     
 H18    1.0    0.031550    0.653650    0.534280 Biso 1.000000  H     
 H19    1.0    0.094619    0.458057    0.671078 Biso 1.000000  H     
 H20    1.0    0.194149    0.450920    0.704730 Biso 1.000000  H     
 H21    1.0    0.205237    0.556677    0.655942 Biso 1.000000  H     
 H22    1.0    0.568052    0.185711    0.183423 Biso 1.000000  H     
 H23    1.0    0.468523    0.192848    0.149770 Biso 1.000000  H     
 H24    1.0    0.457434    0.087091    0.198558 Biso 1.000000  H     
 H25    1.0    0.160103    0.516293    0.819909 Biso 1.000000  H     
 H26    1.0    0.493437    0.182959    0.319909 Biso 1.000000  H     
 H27    1.0    0.526035    0.116069    0.710119 Biso 1.000000  H     
 H28    1.0    0.539877    0.224580    0.660220 Biso 1.000000  H     
 H29    1.0    0.426295    0.126183    0.677011 Biso 1.000000  H     
 H30    1.0    0.135435    0.528487    0.154781 Biso 1.000000  H     
 H31    1.0    0.121593    0.419976    0.204680 Biso 1.000000  H     
 H32    1.0    0.235175    0.518373    0.187889 Biso 1.000000  H     
 H33    1.0    0.494677    0.184238    0.824157 Biso 1.000000  H     
 H34    1.0    0.161343    0.517572    0.324157 Biso 1.000000  H     
 H35    1.0    0.845983    0.905135    0.290407 Biso 1.000000  H     
 H36    1.0    0.756554    0.779554    0.326377 Biso 1.000000  H     
 H37    1.0    0.885400    0.821278    0.343404 Biso 1.000000  H     
 H38    1.0    0.812641    0.765510    0.849719 Biso 1.000000  H     
 H39    1.0    0.902071    0.891091    0.813749 Biso 1.000000  H     
 H40    1.0    0.773225    0.849367    0.796721 Biso 1.000000  H     
 H41    1.0    0.832748    0.808729    0.185964 Biso 1.000000  H     
 H42    1.0    0.832748    0.808729    0.685964 Biso 1.000000  H     
 N1     1.0    0.163332    0.496670    0.719002 Biso 1.000000  N     
 N2     1.0    0.496666    0.163336    0.219002 Biso 1.000000  N     
 N3     1.0    0.496667    0.163335    0.720682 Biso 1.000000  N     
 N4     1.0    0.163333    0.496669    0.220682 Biso 1.000000  N     
 N5     1.0    0.830000    0.830004    0.293243 Biso 1.000000  N     
 N6     1.0    0.830000    0.830004    0.793243 Biso 1.000000  N     
