_cell_length_a                         12.587100
_cell_length_b                         12.587100
_cell_length_c                         8.223700
_cell_angle_alpha                      90.000000
_cell_angle_beta                       90.000000
_cell_angle_gamma                      120.000008
_space_group_IT_number                 1
 loop_
 _space_group_symop_operation_xyz 
 'x, y, z' 
 loop_ 
 _atom_site_label 
 _atom_site_occupancy 
 _atom_site_fract_x 
 _atom_site_fract_y
 _atom_site_fract_z
 _atom_site_adp_type
 _atom_site_U_iso_or_equiv
 _atom_site_type_symbol
 Co1    1.0    0.161540    0.165110    0.753750 Biso 1.000000  Co    
 Co2    1.0    0.833570    0.498460    0.753750 Biso 1.000000  Co    
 Co3    1.0    0.494890    0.826430    0.753750 Biso 1.000000  Co    
 Co4    1.0    0.498460    0.494890    0.253750 Biso 1.000000  Co    
 Co5    1.0    0.826430    0.161540    0.253750 Biso 1.000000  Co    
 Co6    1.0    0.165110    0.833570    0.253750 Biso 1.000000  Co    
 O1     1.0    0.093440    0.254870    0.897100 Biso 1.000000  O     
 O2     1.0    0.991430    0.566560    0.897100 Biso 1.000000  O     
 O3     1.0    0.405130    0.668570    0.897100 Biso 1.000000  O     
 O4     1.0    0.566560    0.405130    0.397100 Biso 1.000000  O     
 O5     1.0    0.668570    0.093440    0.397100 Biso 1.000000  O     
 O6     1.0    0.254870    0.991430    0.397100 Biso 1.000000  O     
 O7     1.0    0.984790    0.256580    0.109400 Biso 1.000000  O     
 O8     1.0    0.101790    0.675210    0.109400 Biso 1.000000  O     
 O9     1.0    0.403420    0.558210    0.109400 Biso 1.000000  O     
 O10    1.0    0.675210    0.403420    0.609400 Biso 1.000000  O     
 O11    1.0    0.558210    0.984790    0.609400 Biso 1.000000  O     
 O12    1.0    0.256580    0.101790    0.609400 Biso 1.000000  O     
 O13    1.0    0.318930    0.229850    0.898620 Biso 1.000000  O     
 O14    1.0    0.740920    0.341070    0.898620 Biso 1.000000  O     
 O15    1.0    0.430150    0.919080    0.898620 Biso 1.000000  O     
 O16    1.0    0.341070    0.430150    0.398620 Biso 1.000000  O     
 O17    1.0    0.919080    0.318930    0.398620 Biso 1.000000  O     
 O18    1.0    0.229850    0.740920    0.398620 Biso 1.000000  O     
 O19    1.0    0.431780    0.335990    0.111300 Biso 1.000000  O     
 O20    1.0    0.734210    0.228220    0.111300 Biso 1.000000  O     
 O21    1.0    0.324010    0.925790    0.111300 Biso 1.000000  O     
 O22    1.0    0.228220    0.324010    0.611300 Biso 1.000000  O     
 O23    1.0    0.925790    0.431780    0.611300 Biso 1.000000  O     
 O24    1.0    0.335990    0.734210    0.611300 Biso 1.000000  O     
 O25    1.0    0.066530    0.005920    0.894730 Biso 1.000000  O     
 O26    1.0    0.769390    0.593470    0.894730 Biso 1.000000  O     
 O27    1.0    0.654080    0.890610    0.894730 Biso 1.000000  O     
 O28    1.0    0.593470    0.654080    0.394730 Biso 1.000000  O     
 O29    1.0    0.890610    0.066530    0.394730 Biso 1.000000  O     
 O30    1.0    0.005920    0.769390    0.394730 Biso 1.000000  O     
 O31    1.0    0.075290    0.900780    0.106890 Biso 1.000000  O     
 O32    1.0    0.655490    0.584710    0.106890 Biso 1.000000  O     
 O33    1.0    0.759220    0.004510    0.106890 Biso 1.000000  O     
 O34    1.0    0.584710    0.759220    0.606890 Biso 1.000000  O     
 O35    1.0    0.004510    0.075290    0.606890 Biso 1.000000  O     
 O36    1.0    0.900780    0.655490    0.606890 Biso 1.000000  O     
 C1     1.0    0.015300    0.203300    0.007500 Biso 1.000000  C     
 C2     1.0    0.018000    0.644700    0.007500 Biso 1.000000  C     
 C3     1.0    0.456700    0.642000    0.007500 Biso 1.000000  C     
 C4     1.0    0.644700    0.456700    0.507500 Biso 1.000000  C     
 C5     1.0    0.642000    0.015300    0.507500 Biso 1.000000  C     
 C6     1.0    0.203300    0.018000    0.507500 Biso 1.000000  C     
 C7     1.0    0.343900    0.303600    0.014800 Biso 1.000000  C     
 C8     1.0    0.789700    0.316100    0.014800 Biso 1.000000  C     
 C9     1.0    0.356400    0.870300    0.014800 Biso 1.000000  C     
 C10    1.0    0.316100    0.356400    0.514800 Biso 1.000000  C     
 C11    1.0    0.870300    0.343900    0.514800 Biso 1.000000  C     
 C12    1.0    0.303600    0.789700    0.514800 Biso 1.000000  C     
 C13    1.0    0.123100    0.972300    0.988500 Biso 1.000000  C     
 C14    1.0    0.679200    0.536900    0.988500 Biso 1.000000  C     
 C15    1.0    0.687700    0.980800    0.988500 Biso 1.000000  C     
 C16    1.0    0.536900    0.687700    0.488500 Biso 1.000000  C     
 C17    1.0    0.980800    0.123100    0.488500 Biso 1.000000  C     
 C18    1.0    0.972300    0.679200    0.488500 Biso 1.000000  C     
 H1     1.0    0.976000    0.116500    0.013900 Biso 1.000000  H     
 H2     1.0    0.970500    0.684000    0.013900 Biso 1.000000  H     
 H3     1.0    0.543500    0.689500    0.013900 Biso 1.000000  H     
 H4     1.0    0.684000    0.543500    0.513900 Biso 1.000000  H     
 H5     1.0    0.689500    0.976000    0.513900 Biso 1.000000  H     
 H6     1.0    0.116500    0.970500    0.513900 Biso 1.000000  H     
 H7     1.0    0.292000    0.337400    0.030600 Biso 1.000000  H     
 H8     1.0    0.875400    0.368000    0.030600 Biso 1.000000  H     
 H9     1.0    0.322600    0.784600    0.030600 Biso 1.000000  H     
 H10    1.0    0.368000    0.322600    0.530600 Biso 1.000000  H     
 H11    1.0    0.784600    0.292000    0.530600 Biso 1.000000  H     
 H12    1.0    0.337400    0.875400    0.530600 Biso 1.000000  H     
 H13    1.0    0.207900    0.003200    0.968400 Biso 1.000000  H     
 H14    1.0    0.625300    0.452100    0.968400 Biso 1.000000  H     
 H15    1.0    0.656800    0.034700    0.968400 Biso 1.000000  H     
 H16    1.0    0.452100    0.656800    0.468400 Biso 1.000000  H     
 H17    1.0    0.034700    0.207900    0.468400 Biso 1.000000  H     
 H18    1.0    0.003200    0.625300    0.468400 Biso 1.000000  H     
 H19    1.0    0.142000    0.427900    0.842000 Biso 1.000000  H     
 H20    1.0    0.115900    0.518000    0.842000 Biso 1.000000  H     
 H21    1.0    0.232100    0.544100    0.842000 Biso 1.000000  H     
 H22    1.0    0.518000    0.232100    0.342000 Biso 1.000000  H     
 H23    1.0    0.544100    0.142000    0.342000 Biso 1.000000  H     
 H24    1.0    0.427900    0.115900    0.342000 Biso 1.000000  H     
 H25    1.0    0.163333    0.496667    0.692000 Biso 1.000000  H     
 H26    1.0    0.496667    0.163333    0.192000 Biso 1.000000  H     
 H27    1.0    0.450000    0.187000    0.840000 Biso 1.000000  H     
 H28    1.0    0.567000    0.210000    0.840000 Biso 1.000000  H     
 H29    1.0    0.473000    0.093000    0.840000 Biso 1.000000  H     
 H30    1.0    0.210000    0.473000    0.340000 Biso 1.000000  H     
 H31    1.0    0.093000    0.450000    0.340000 Biso 1.000000  H     
 H32    1.0    0.187000    0.567000    0.340000 Biso 1.000000  H     
 H33    1.0    0.496667    0.163333    0.691000 Biso 1.000000  H     
 H34    1.0    0.163333    0.496667    0.191000 Biso 1.000000  H     
 H35    1.0    0.904700    0.854000    0.179000 Biso 1.000000  H     
 H36    1.0    0.779300    0.755300    0.179000 Biso 1.000000  H     
 H37    1.0    0.806000    0.880700    0.179000 Biso 1.000000  H     
 H38    1.0    0.755300    0.806000    0.679000 Biso 1.000000  H     
 H39    1.0    0.880700    0.904700    0.679000 Biso 1.000000  H     
 H40    1.0    0.854000    0.779300    0.679000 Biso 1.000000  H     
 H41    1.0    0.830000    0.830000    0.320000 Biso 1.000000  H     
 H42    1.0    0.830000    0.830000    0.820000 Biso 1.000000  H     
 N1     1.0    0.163333    0.496667    0.798100 Biso 1.000000  N     
 N2     1.0    0.496667    0.163333    0.298100 Biso 1.000000  N     
 N3     1.0    0.496667    0.163333    0.799800 Biso 1.000000  N     
 N4     1.0    0.163333    0.496667    0.299800 Biso 1.000000  N     
 N5     1.0    0.830000    0.830000    0.207200 Biso 1.000000  N     
 N6     1.0    0.830000    0.830000    0.707200 Biso 1.000000  N     
