_cell_length_a                         12.587100
_cell_length_b                         12.587100
_cell_length_c                         8.223700
_cell_angle_alpha                      90.000000
_cell_angle_beta                       90.000000
_cell_angle_gamma                      120.000008
_space_group_IT_number                 1
 loop_
 _space_group_symop_operation_xyz 
 'x, y, z' 
 loop_ 
 _atom_site_label 
 _atom_site_occupancy 
 _atom_site_fract_x 
 _atom_site_fract_y
 _atom_site_fract_z
 _atom_site_adp_type
 _atom_site_U_iso_or_equiv
 _atom_site_type_symbol
 Co1    1.0    0.161897    0.164753    0.754000 Biso 1.000000  Co    
 Co2    1.0    0.832856    0.498103    0.754000 Biso 1.000000  Co    
 Co3    1.0    0.495247    0.827144    0.754000 Biso 1.000000  Co    
 Co4    1.0    0.498103    0.495247    0.254000 Biso 1.000000  Co    
 Co5    1.0    0.827144    0.161897    0.254000 Biso 1.000000  Co    
 Co6    1.0    0.164753    0.832856    0.254000 Biso 1.000000  Co    
 O1     1.0    0.094275    0.255041    0.897450 Biso 1.000000  O     
 O2     1.0    0.990766    0.565725    0.897450 Biso 1.000000  O     
 O3     1.0    0.404959    0.669234    0.897450 Biso 1.000000  O     
 O4     1.0    0.565725    0.404959    0.397450 Biso 1.000000  O     
 O5     1.0    0.669234    0.094275    0.397450 Biso 1.000000  O     
 O6     1.0    0.255041    0.990766    0.397450 Biso 1.000000  O     
 O7     1.0    0.985454    0.256409    0.109750 Biso 1.000000  O     
 O8     1.0    0.100955    0.674546    0.109750 Biso 1.000000  O     
 O9     1.0    0.403591    0.559045    0.109750 Biso 1.000000  O     
 O10    1.0    0.674546    0.403591    0.609750 Biso 1.000000  O     
 O11    1.0    0.559045    0.985454    0.609750 Biso 1.000000  O     
 O12    1.0    0.256409    0.100955    0.609750 Biso 1.000000  O     
 O13    1.0    0.319438    0.229687    0.898628 Biso 1.000000  O     
 O14    1.0    0.740249    0.340562    0.898628 Biso 1.000000  O     
 O15    1.0    0.430313    0.919751    0.898628 Biso 1.000000  O     
 O16    1.0    0.340562    0.430313    0.398628 Biso 1.000000  O     
 O17    1.0    0.919751    0.319438    0.398628 Biso 1.000000  O     
 O18    1.0    0.229687    0.740249    0.398628 Biso 1.000000  O     
 O19    1.0    0.431617    0.336498    0.111308 Biso 1.000000  O     
 O20    1.0    0.734881    0.228383    0.111308 Biso 1.000000  O     
 O21    1.0    0.323502    0.925119    0.111308 Biso 1.000000  O     
 O22    1.0    0.228383    0.323502    0.611308 Biso 1.000000  O     
 O23    1.0    0.925119    0.431617    0.611308 Biso 1.000000  O     
 O24    1.0    0.336498    0.734881    0.611308 Biso 1.000000  O     
 O25    1.0    0.067406    0.005779    0.895568 Biso 1.000000  O     
 O26    1.0    0.768373    0.592594    0.895568 Biso 1.000000  O     
 O27    1.0    0.654221    0.891627    0.895568 Biso 1.000000  O     
 O28    1.0    0.592594    0.654221    0.395568 Biso 1.000000  O     
 O29    1.0    0.891627    0.067406    0.395568 Biso 1.000000  O     
 O30    1.0    0.005779    0.768373    0.395568 Biso 1.000000  O     
 O31    1.0    0.074414    0.899763    0.107728 Biso 1.000000  O     
 O32    1.0    0.655349    0.585586    0.107728 Biso 1.000000  O     
 O33    1.0    0.760237    0.004651    0.107728 Biso 1.000000  O     
 O34    1.0    0.585586    0.760237    0.607728 Biso 1.000000  O     
 O35    1.0    0.004651    0.074414    0.607728 Biso 1.000000  O     
 O36    1.0    0.899763    0.655349    0.607728 Biso 1.000000  O     
 C1     1.0    0.015570    0.203300    0.007000 Biso 1.000000  C     
 C2     1.0    0.017730    0.644430    0.007000 Biso 1.000000  C     
 C3     1.0    0.456700    0.642270    0.007000 Biso 1.000000  C     
 C4     1.0    0.644430    0.456700    0.507000 Biso 1.000000  C     
 C5     1.0    0.642270    0.015570    0.507000 Biso 1.000000  C     
 C6     1.0    0.203300    0.017730    0.507000 Biso 1.000000  C     
 C7     1.0    0.345150    0.304850    0.012840 Biso 1.000000  C     
 C8     1.0    0.789700    0.314850    0.012840 Biso 1.000000  C     
 C9     1.0    0.355150    0.870300    0.012840 Biso 1.000000  C     
 C10    1.0    0.314850    0.355150    0.512840 Biso 1.000000  C     
 C11    1.0    0.870300    0.345150    0.512840 Biso 1.000000  C     
 C12    1.0    0.304850    0.789700    0.512840 Biso 1.000000  C     
 C13    1.0    0.123100    0.973150    0.991800 Biso 1.000000  C     
 C14    1.0    0.680050    0.536900    0.991800 Biso 1.000000  C     
 C15    1.0    0.686850    0.979950    0.991800 Biso 1.000000  C     
 C16    1.0    0.536900    0.686850    0.491800 Biso 1.000000  C     
 C17    1.0    0.979950    0.123100    0.491800 Biso 1.000000  C     
 C18    1.0    0.973150    0.680050    0.491800 Biso 1.000000  C     
 H1     1.0    0.975450    0.116500    0.012120 Biso 1.000000  H     
 H2     1.0    0.971050    0.684550    0.012120 Biso 1.000000  H     
 H3     1.0    0.543500    0.688950    0.012120 Biso 1.000000  H     
 H4     1.0    0.684550    0.543500    0.512120 Biso 1.000000  H     
 H5     1.0    0.688950    0.975450    0.512120 Biso 1.000000  H     
 H6     1.0    0.116500    0.971050    0.512120 Biso 1.000000  H     
 H7     1.0    0.295060    0.340460    0.025480 Biso 1.000000  H     
 H8     1.0    0.875400    0.364940    0.025480 Biso 1.000000  H     
 H9     1.0    0.319540    0.784600    0.025480 Biso 1.000000  H     
 H10    1.0    0.364940    0.319540    0.525480 Biso 1.000000  H     
 H11    1.0    0.784600    0.295060    0.525480 Biso 1.000000  H     
 H12    1.0    0.340460    0.875400    0.525480 Biso 1.000000  H     
 H13    1.0    0.207900    0.006350    0.975720 Biso 1.000000  H     
 H14    1.0    0.628450    0.452100    0.975720 Biso 1.000000  H     
 H15    1.0    0.653650    0.031550    0.975720 Biso 1.000000  H     
 H16    1.0    0.452100    0.653650    0.475720 Biso 1.000000  H     
 H17    1.0    0.031550    0.207900    0.475720 Biso 1.000000  H     
 H18    1.0    0.006350    0.628450    0.475720 Biso 1.000000  H     
 H19    1.0    0.142988    0.425760    0.824887 Biso 1.000000  H     
 H20    1.0    0.132388    0.523334    0.858539 Biso 1.000000  H     
 H21    1.0    0.239505    0.537787    0.809752 Biso 1.000000  H     
 H22    1.0    0.533600    0.232161    0.337232 Biso 1.000000  H     
 H23    1.0    0.544199    0.134586    0.303580 Biso 1.000000  H     
 H24    1.0    0.437083    0.120134    0.352367 Biso 1.000000  H     
 H25    1.0    0.143276    0.499181    0.688401 Biso 1.000000  H     
 H26    1.0    0.476610    0.165847    0.188401 Biso 1.000000  H     
 H27    1.0    0.466333    0.192758    0.856910 Biso 1.000000  H     
 H28    1.0    0.573439    0.203179    0.807010 Biso 1.000000  H     
 H29    1.0    0.472920    0.091044    0.823801 Biso 1.000000  H     
 H30    1.0    0.208795    0.465229    0.301571 Biso 1.000000  H     
 H31    1.0    0.101689    0.454808    0.351470 Biso 1.000000  H     
 H32    1.0    0.202208    0.566943    0.334679 Biso 1.000000  H     
 H33    1.0    0.476189    0.166058    0.687533 Biso 1.000000  H     
 H34    1.0    0.142855    0.499392    0.187533 Biso 1.000000  H     
 H35    1.0    0.894490    0.847359    0.160281 Biso 1.000000  H     
 H36    1.0    0.768909    0.757929    0.196251 Biso 1.000000  H     
 H37    1.0    0.810633    0.886775    0.213279 Biso 1.000000  H     
 H38    1.0    0.754865    0.814017    0.719593 Biso 1.000000  H     
 H39    1.0    0.880446    0.903446    0.683623 Biso 1.000000  H     
 H40    1.0    0.838722    0.774600    0.666596 Biso 1.000000  H     
 H41    1.0    0.851271    0.827252    0.324036 Biso 1.000000  H     
 H42    1.0    0.851271    0.827252    0.824036 Biso 1.000000  H     
 N1     1.0    0.163330    0.496667    0.789308 Biso 1.000000  N     
 N2     1.0    0.496664    0.163333    0.289308 Biso 1.000000  N     
 N3     1.0    0.496665    0.163333    0.791008 Biso 1.000000  N     
 N4     1.0    0.163331    0.496667    0.291008 Biso 1.000000  N     
 N5     1.0    0.829996    0.830000    0.216757 Biso 1.000000  N     
 N6     1.0    0.829996    0.830000    0.716757 Biso 1.000000  N     
