_cell_length_a                         12.587100
_cell_length_b                         12.587100
_cell_length_c                         8.223700
_cell_angle_alpha                      90.000000
_cell_angle_beta                       90.000000
_cell_angle_gamma                      120.000008
_space_group_IT_number                 1
 loop_
 _space_group_symop_operation_xyz 
 'x, y, z' 
 loop_ 
 _atom_site_label 
 _atom_site_occupancy 
 _atom_site_fract_x 
 _atom_site_fract_y
 _atom_site_fract_z
 _atom_site_adp_type
 _atom_site_U_iso_or_equiv
 _atom_site_type_symbol
 Co1    1.0    0.162611    0.164039    0.754500 Biso 1.000000  Co    
 Co2    1.0    0.831428    0.497389    0.754500 Biso 1.000000  Co    
 Co3    1.0    0.495961    0.828572    0.754500 Biso 1.000000  Co    
 Co4    1.0    0.497389    0.495961    0.254500 Biso 1.000000  Co    
 Co5    1.0    0.828572    0.162611    0.254500 Biso 1.000000  Co    
 Co6    1.0    0.164039    0.831428    0.254500 Biso 1.000000  Co    
 O1     1.0    0.095945    0.255383    0.898150 Biso 1.000000  O     
 O2     1.0    0.989438    0.564055    0.898150 Biso 1.000000  O     
 O3     1.0    0.404617    0.670562    0.898150 Biso 1.000000  O     
 O4     1.0    0.564055    0.404617    0.398150 Biso 1.000000  O     
 O5     1.0    0.670562    0.095945    0.398150 Biso 1.000000  O     
 O6     1.0    0.255383    0.989438    0.398150 Biso 1.000000  O     
 O7     1.0    0.986782    0.256067    0.110450 Biso 1.000000  O     
 O8     1.0    0.099285    0.673218    0.110450 Biso 1.000000  O     
 O9     1.0    0.403933    0.560715    0.110450 Biso 1.000000  O     
 O10    1.0    0.673218    0.403933    0.610450 Biso 1.000000  O     
 O11    1.0    0.560715    0.986782    0.610450 Biso 1.000000  O     
 O12    1.0    0.256067    0.099285    0.610450 Biso 1.000000  O     
 O13    1.0    0.320454    0.229361    0.898644 Biso 1.000000  O     
 O14    1.0    0.738907    0.339546    0.898644 Biso 1.000000  O     
 O15    1.0    0.430639    0.921093    0.898644 Biso 1.000000  O     
 O16    1.0    0.339546    0.430639    0.398644 Biso 1.000000  O     
 O17    1.0    0.921093    0.320454    0.398644 Biso 1.000000  O     
 O18    1.0    0.229361    0.738907    0.398644 Biso 1.000000  O     
 O19    1.0    0.431291    0.337514    0.111324 Biso 1.000000  O     
 O20    1.0    0.736223    0.228709    0.111324 Biso 1.000000  O     
 O21    1.0    0.322486    0.923777    0.111324 Biso 1.000000  O     
 O22    1.0    0.228709    0.322486    0.611324 Biso 1.000000  O     
 O23    1.0    0.923777    0.431291    0.611324 Biso 1.000000  O     
 O24    1.0    0.337514    0.736223    0.611324 Biso 1.000000  O     
 O25    1.0    0.069158    0.005497    0.897244 Biso 1.000000  O     
 O26    1.0    0.766339    0.590842    0.897244 Biso 1.000000  O     
 O27    1.0    0.654503    0.893661    0.897244 Biso 1.000000  O     
 O28    1.0    0.590842    0.654503    0.397244 Biso 1.000000  O     
 O29    1.0    0.893661    0.069158    0.397244 Biso 1.000000  O     
 O30    1.0    0.005497    0.766339    0.397244 Biso 1.000000  O     
 O31    1.0    0.072662    0.897729    0.109404 Biso 1.000000  O     
 O32    1.0    0.655067    0.587338    0.109404 Biso 1.000000  O     
 O33    1.0    0.762271    0.004933    0.109404 Biso 1.000000  O     
 O34    1.0    0.587338    0.762271    0.609404 Biso 1.000000  O     
 O35    1.0    0.004933    0.072662    0.609404 Biso 1.000000  O     
 O36    1.0    0.897729    0.655067    0.609404 Biso 1.000000  O     
 C1     1.0    0.016110    0.203300    0.006000 Biso 1.000000  C     
 C2     1.0    0.017190    0.643890    0.006000 Biso 1.000000  C     
 C3     1.0    0.456700    0.642810    0.006000 Biso 1.000000  C     
 C4     1.0    0.643890    0.456700    0.506000 Biso 1.000000  C     
 C5     1.0    0.642810    0.016110    0.506000 Biso 1.000000  C     
 C6     1.0    0.203300    0.017190    0.506000 Biso 1.000000  C     
 C7     1.0    0.347650    0.307350    0.008920 Biso 1.000000  C     
 C8     1.0    0.789700    0.312350    0.008920 Biso 1.000000  C     
 C9     1.0    0.352650    0.870300    0.008920 Biso 1.000000  C     
 C10    1.0    0.312350    0.352650    0.508920 Biso 1.000000  C     
 C11    1.0    0.870300    0.347650    0.508920 Biso 1.000000  C     
 C12    1.0    0.307350    0.789700    0.508920 Biso 1.000000  C     
 C13    1.0    0.123100    0.974850    0.998400 Biso 1.000000  C     
 C14    1.0    0.681750    0.536900    0.998400 Biso 1.000000  C     
 C15    1.0    0.685150    0.978250    0.998400 Biso 1.000000  C     
 C16    1.0    0.536900    0.685150    0.498400 Biso 1.000000  C     
 C17    1.0    0.978250    0.123100    0.498400 Biso 1.000000  C     
 C18    1.0    0.974850    0.681750    0.498400 Biso 1.000000  C     
 H1     1.0    0.974350    0.116500    0.008560 Biso 1.000000  H     
 H2     1.0    0.972150    0.685650    0.008560 Biso 1.000000  H     
 H3     1.0    0.543500    0.687850    0.008560 Biso 1.000000  H     
 H4     1.0    0.685650    0.543500    0.508560 Biso 1.000000  H     
 H5     1.0    0.687850    0.974350    0.508560 Biso 1.000000  H     
 H6     1.0    0.116500    0.972150    0.508560 Biso 1.000000  H     
 H7     1.0    0.301180    0.346580    0.015240 Biso 1.000000  H     
 H8     1.0    0.875400    0.358820    0.015240 Biso 1.000000  H     
 H9     1.0    0.313420    0.784600    0.015240 Biso 1.000000  H     
 H10    1.0    0.358820    0.313420    0.515240 Biso 1.000000  H     
 H11    1.0    0.784600    0.301180    0.515240 Biso 1.000000  H     
 H12    1.0    0.346580    0.875400    0.515240 Biso 1.000000  H     
 H13    1.0    0.207900    0.012650    0.990360 Biso 1.000000  H     
 H14    1.0    0.634750    0.452100    0.990360 Biso 1.000000  H     
 H15    1.0    0.647350    0.025250    0.990360 Biso 1.000000  H     
 H16    1.0    0.452100    0.647350    0.490360 Biso 1.000000  H     
 H17    1.0    0.025250    0.207900    0.490360 Biso 1.000000  H     
 H18    1.0    0.012650    0.634750    0.490360 Biso 1.000000  H     
 H19    1.0    0.136711    0.420366    0.781373 Biso 1.000000  H     
 H20    1.0    0.170515    0.520817    0.869476 Biso 1.000000  H     
 H21    1.0    0.237056    0.524657    0.741749 Biso 1.000000  H     
 H22    1.0    0.559477    0.223527    0.313693 Biso 1.000000  H     
 H23    1.0    0.525674    0.123076    0.225590 Biso 1.000000  H     
 H24    1.0    0.459133    0.119236    0.353318 Biso 1.000000  H     
 H25    1.0    0.119576    0.516143    0.709366 Biso 1.000000  H     
 H26    1.0    0.452910    0.182809    0.209366 Biso 1.000000  H     
 H27    1.0    0.504338    0.190592    0.869494 Biso 1.000000  H     
 H28    1.0    0.569010    0.189682    0.738856 Biso 1.000000  H     
 H29    1.0    0.465416    0.086374    0.782815 Biso 1.000000  H     
 H30    1.0    0.188171    0.453840    0.224615 Biso 1.000000  H     
 H31    1.0    0.123498    0.454750    0.355253 Biso 1.000000  H     
 H32    1.0    0.227092    0.558058    0.311294 Biso 1.000000  H     
 H33    1.0    0.452663    0.184406    0.709474 Biso 1.000000  H     
 H34    1.0    0.119329    0.517740    0.209474 Biso 1.000000  H     
 H35    1.0    0.864786    0.844997    0.141661 Biso 1.000000  H     
 H36    1.0    0.756899    0.767078    0.235832 Biso 1.000000  H     
 H37    1.0    0.833740    0.893891    0.280409 Biso 1.000000  H     
 H38    1.0    0.772164    0.825647    0.796940 Biso 1.000000  H     
 H39    1.0    0.880051    0.903566    0.702770 Biso 1.000000  H     
 H40    1.0    0.803210    0.776753    0.658192 Biso 1.000000  H     
 H41    1.0    0.876059    0.808729    0.302178 Biso 1.000000  H     
 H42    1.0    0.876059    0.808729    0.802178 Biso 1.000000  H     
 N1     1.0    0.163325    0.496670    0.771730 Biso 1.000000  N     
 N2     1.0    0.496659    0.163336    0.271730 Biso 1.000000  N     
 N3     1.0    0.496664    0.163335    0.773425 Biso 1.000000  N     
 N4     1.0    0.163330    0.496669    0.273425 Biso 1.000000  N     
 N5     1.0    0.829992    0.830004    0.235876 Biso 1.000000  N     
 N6     1.0    0.829992    0.830004    0.735876 Biso 1.000000  N     
