_cell_length_a                         12.587100
_cell_length_b                         12.587100
_cell_length_c                         8.223700
_cell_angle_alpha                      90.000000
_cell_angle_beta                       90.000000
_cell_angle_gamma                      120.000008
_space_group_IT_number                 1
 loop_
 _space_group_symop_operation_xyz 
 'x, y, z' 
 loop_ 
 _atom_site_label 
 _atom_site_occupancy 
 _atom_site_fract_x 
 _atom_site_fract_y
 _atom_site_fract_z
 _atom_site_adp_type
 _atom_site_U_iso_or_equiv
 _atom_site_type_symbol
 Co1    1.0    0.163682    0.162968    0.755250 Biso 1.000000  Co    
 Co2    1.0    0.829286    0.496318    0.755250 Biso 1.000000  Co    
 Co3    1.0    0.497032    0.830714    0.755250 Biso 1.000000  Co    
 Co4    1.0    0.496318    0.497032    0.255250 Biso 1.000000  Co    
 Co5    1.0    0.830714    0.163682    0.255250 Biso 1.000000  Co    
 Co6    1.0    0.162968    0.829286    0.255250 Biso 1.000000  Co    
 O1     1.0    0.098450    0.255896    0.899200 Biso 1.000000  O     
 O2     1.0    0.987446    0.561550    0.899200 Biso 1.000000  O     
 O3     1.0    0.404104    0.672554    0.899200 Biso 1.000000  O     
 O4     1.0    0.561550    0.404104    0.399200 Biso 1.000000  O     
 O5     1.0    0.672554    0.098450    0.399200 Biso 1.000000  O     
 O6     1.0    0.255896    0.987446    0.399200 Biso 1.000000  O     
 O7     1.0    0.988774    0.255554    0.111500 Biso 1.000000  O     
 O8     1.0    0.096780    0.671226    0.111500 Biso 1.000000  O     
 O9     1.0    0.404446    0.563220    0.111500 Biso 1.000000  O     
 O10    1.0    0.671226    0.404446    0.611500 Biso 1.000000  O     
 O11    1.0    0.563220    0.988774    0.611500 Biso 1.000000  O     
 O12    1.0    0.255554    0.096780    0.611500 Biso 1.000000  O     
 O13    1.0    0.321978    0.228872    0.898668 Biso 1.000000  O     
 O14    1.0    0.736894    0.338022    0.898668 Biso 1.000000  O     
 O15    1.0    0.431128    0.923106    0.898668 Biso 1.000000  O     
 O16    1.0    0.338022    0.431128    0.398668 Biso 1.000000  O     
 O17    1.0    0.923106    0.321978    0.398668 Biso 1.000000  O     
 O18    1.0    0.228872    0.736894    0.398668 Biso 1.000000  O     
 O19    1.0    0.430802    0.339038    0.111348 Biso 1.000000  O     
 O20    1.0    0.738236    0.229198    0.111348 Biso 1.000000  O     
 O21    1.0    0.320962    0.921764    0.111348 Biso 1.000000  O     
 O22    1.0    0.229198    0.320962    0.611348 Biso 1.000000  O     
 O23    1.0    0.921764    0.430802    0.611348 Biso 1.000000  O     
 O24    1.0    0.339038    0.738236    0.611348 Biso 1.000000  O     
 O25    1.0    0.071786    0.005074    0.899758 Biso 1.000000  O     
 O26    1.0    0.763288    0.588214    0.899758 Biso 1.000000  O     
 O27    1.0    0.654926    0.896712    0.899758 Biso 1.000000  O     
 O28    1.0    0.588214    0.654926    0.399758 Biso 1.000000  O     
 O29    1.0    0.896712    0.071786    0.399758 Biso 1.000000  O     
 O30    1.0    0.005074    0.763288    0.399758 Biso 1.000000  O     
 O31    1.0    0.070034    0.894678    0.111918 Biso 1.000000  O     
 O32    1.0    0.654644    0.589966    0.111918 Biso 1.000000  O     
 O33    1.0    0.765322    0.005356    0.111918 Biso 1.000000  O     
 O34    1.0    0.589966    0.765322    0.611918 Biso 1.000000  O     
 O35    1.0    0.005356    0.070034    0.611918 Biso 1.000000  O     
 O36    1.0    0.894678    0.654644    0.611918 Biso 1.000000  O     
 C1     1.0    0.016920    0.203300    0.004500 Biso 1.000000  C     
 C2     1.0    0.016380    0.643080    0.004500 Biso 1.000000  C     
 C3     1.0    0.456700    0.643620    0.004500 Biso 1.000000  C     
 C4     1.0    0.643080    0.456700    0.504500 Biso 1.000000  C     
 C5     1.0    0.643620    0.016920    0.504500 Biso 1.000000  C     
 C6     1.0    0.203300    0.016380    0.504500 Biso 1.000000  C     
 C7     1.0    0.351400    0.311100    0.003040 Biso 1.000000  C     
 C8     1.0    0.789700    0.308600    0.003040 Biso 1.000000  C     
 C9     1.0    0.348900    0.870300    0.003040 Biso 1.000000  C     
 C10    1.0    0.308600    0.348900    0.503040 Biso 1.000000  C     
 C11    1.0    0.870300    0.351400    0.503040 Biso 1.000000  C     
 C12    1.0    0.311100    0.789700    0.503040 Biso 1.000000  C     
 C13    1.0    0.123100    0.977400    1.008300 Biso 1.000000  C     
 C14    1.0    0.684300    0.536900    1.008300 Biso 1.000000  C     
 C15    1.0    0.682600    0.975700    1.008300 Biso 1.000000  C     
 C16    1.0    0.536900    0.682600    0.508300 Biso 1.000000  C     
 C17    1.0    0.975700    0.123100    0.508300 Biso 1.000000  C     
 C18    1.0    0.977400    0.684300    0.508300 Biso 1.000000  C     
 H1     1.0    0.972700    0.116500    0.003220 Biso 1.000000  H     
 H2     1.0    0.973800    0.687300    0.003220 Biso 1.000000  H     
 H3     1.0    0.543500    0.686200    0.003220 Biso 1.000000  H     
 H4     1.0    0.687300    0.543500    0.503220 Biso 1.000000  H     
 H5     1.0    0.686200    0.972700    0.503220 Biso 1.000000  H     
 H6     1.0    0.116500    0.973800    0.503220 Biso 1.000000  H     
 H7     1.0    0.310360    0.355760   -0.000120 Biso 1.000000  H     
 H8     1.0    0.875400    0.349640   -0.000120 Biso 1.000000  H     
 H9     1.0    0.304240    0.784600   -0.000120 Biso 1.000000  H     
 H10    1.0    0.349640    0.304240    0.499880 Biso 1.000000  H     
 H11    1.0    0.784600    0.310360    0.499880 Biso 1.000000  H     
 H12    1.0    0.355760    0.875400    0.499880 Biso 1.000000  H     
 H13    1.0    0.207900    0.022100    1.012320 Biso 1.000000  H     
 H14    1.0    0.644200    0.452100    1.012320 Biso 1.000000  H     
 H15    1.0    0.637900    0.015800    1.012320 Biso 1.000000  H     
 H16    1.0    0.452100    0.637900    0.512320 Biso 1.000000  H     
 H17    1.0    0.015800    0.207900    0.512320 Biso 1.000000  H     
 H18    1.0    0.022100    0.644200    0.512320 Biso 1.000000  H     
 H19    1.0    0.112348    0.424948    0.712805 Biso 1.000000  H     
 H20    1.0    0.204735    0.484193    0.816376 Biso 1.000000  H     
 H21    1.0    0.212834    0.526684    0.666223 Biso 1.000000  H     
 H22    1.0    0.574265    0.198935    0.250799 Biso 1.000000  H     
 H23    1.0    0.481878    0.139690    0.147228 Biso 1.000000  H     
 H24    1.0    0.473779    0.097199    0.297381 Biso 1.000000  H     
 H25    1.0    0.131154    0.540338    0.778155 Biso 1.000000  H     
 H26    1.0    0.464488    0.207004    0.278155 Biso 1.000000  H     
 H27    1.0    0.537876    0.152316    0.819790 Biso 1.000000  H     
 H28    1.0    0.544339    0.193340    0.666216 Biso 1.000000  H     
 H29    1.0    0.441589    0.092278    0.717893 Biso 1.000000  H     
 H30    1.0    0.144659    0.472974    0.149475 Biso 1.000000  H     
 H31    1.0    0.138195    0.431950    0.303049 Biso 1.000000  H     
 H32    1.0    0.240946    0.533012    0.251372 Biso 1.000000  H     
 H33    1.0    0.466164    0.210317    0.780676 Biso 1.000000  H     
 H34    1.0    0.132830    0.543651    0.280676 Biso 1.000000  H     
 H35    1.0    0.834590    0.874468    0.182006 Biso 1.000000  H     
 H36    1.0    0.755460    0.778668    0.292710 Biso 1.000000  H     
 H37    1.0    0.875244    0.872568    0.345114 Biso 1.000000  H     
 H38    1.0    0.808939    0.809335    0.864547 Biso 1.000000  H     
 H39    1.0    0.888069    0.905135    0.753843 Biso 1.000000  H     
 H40    1.0    0.768285    0.811235    0.701439 Biso 1.000000  H     
 H41    1.0    0.862913    0.782437    0.229705 Biso 1.000000  H     
 H42    1.0    0.862913    0.782437    0.729705 Biso 1.000000  H     
 N1     1.0    0.163327    0.496675    0.745368 Biso 1.000000  N     
 N2     1.0    0.496661    0.163341    0.245368 Biso 1.000000  N     
 N3     1.0    0.496665    0.163337    0.747055 Biso 1.000000  N     
 N4     1.0    0.163331    0.496671    0.247055 Biso 1.000000  N     
 N5     1.0    0.829994    0.830008    0.264562 Biso 1.000000  N     
 N6     1.0    0.829994    0.830008    0.764562 Biso 1.000000  N     
