_cell_length_a                         12.587100
_cell_length_b                         12.587100
_cell_length_c                         8.223700
_cell_angle_alpha                      90.000000
_cell_angle_beta                       90.000000
_cell_angle_gamma                      120.000008
_space_group_IT_number                 1
 loop_
 _space_group_symop_operation_xyz 
 'x, y, z' 
 loop_ 
 _atom_site_label 
 _atom_site_occupancy 
 _atom_site_fract_x 
 _atom_site_fract_y
 _atom_site_fract_z
 _atom_site_adp_type
 _atom_site_U_iso_or_equiv
 _atom_site_type_symbol
 Co1    1.0    0.165110    0.161540    0.756250 Biso 1.000000  Co    
 Co2    1.0    0.826430    0.494890    0.756250 Biso 1.000000  Co    
 Co3    1.0    0.498460    0.833570    0.756250 Biso 1.000000  Co    
 Co4    1.0    0.494890    0.498460    0.256250 Biso 1.000000  Co    
 Co5    1.0    0.833570    0.165110    0.256250 Biso 1.000000  Co    
 Co6    1.0    0.161540    0.826430    0.256250 Biso 1.000000  Co    
 O1     1.0    0.101790    0.256580    0.900600 Biso 1.000000  O     
 O2     1.0    0.984790    0.558210    0.900600 Biso 1.000000  O     
 O3     1.0    0.403420    0.675210    0.900600 Biso 1.000000  O     
 O4     1.0    0.558210    0.403420    0.400600 Biso 1.000000  O     
 O5     1.0    0.675210    0.101790    0.400600 Biso 1.000000  O     
 O6     1.0    0.256580    0.984790    0.400600 Biso 1.000000  O     
 O7     1.0    0.991430    0.254870    0.112900 Biso 1.000000  O     
 O8     1.0    0.093440    0.668570    0.112900 Biso 1.000000  O     
 O9     1.0    0.405130    0.566560    0.112900 Biso 1.000000  O     
 O10    1.0    0.668570    0.405130    0.612900 Biso 1.000000  O     
 O11    1.0    0.566560    0.991430    0.612900 Biso 1.000000  O     
 O12    1.0    0.254870    0.093440    0.612900 Biso 1.000000  O     
 O13    1.0    0.324010    0.228220    0.898700 Biso 1.000000  O     
 O14    1.0    0.734210    0.335990    0.898700 Biso 1.000000  O     
 O15    1.0    0.431780    0.925790    0.898700 Biso 1.000000  O     
 O16    1.0    0.335990    0.431780    0.398700 Biso 1.000000  O     
 O17    1.0    0.925790    0.324010    0.398700 Biso 1.000000  O     
 O18    1.0    0.228220    0.734210    0.398700 Biso 1.000000  O     
 O19    1.0    0.430150    0.341070    0.111380 Biso 1.000000  O     
 O20    1.0    0.740920    0.229850    0.111380 Biso 1.000000  O     
 O21    1.0    0.318930    0.919080    0.111380 Biso 1.000000  O     
 O22    1.0    0.229850    0.318930    0.611380 Biso 1.000000  O     
 O23    1.0    0.919080    0.430150    0.611380 Biso 1.000000  O     
 O24    1.0    0.341070    0.740920    0.611380 Biso 1.000000  O     
 O25    1.0    0.075290    0.004510    0.903110 Biso 1.000000  O     
 O26    1.0    0.759220    0.584710    0.903110 Biso 1.000000  O     
 O27    1.0    0.655490    0.900780    0.903110 Biso 1.000000  O     
 O28    1.0    0.584710    0.655490    0.403110 Biso 1.000000  O     
 O29    1.0    0.900780    0.075290    0.403110 Biso 1.000000  O     
 O30    1.0    0.004510    0.759220    0.403110 Biso 1.000000  O     
 O31    1.0    0.066530    0.890610    0.115270 Biso 1.000000  O     
 O32    1.0    0.654080    0.593470    0.115270 Biso 1.000000  O     
 O33    1.0    0.769390    0.005920    0.115270 Biso 1.000000  O     
 O34    1.0    0.593470    0.769390    0.615270 Biso 1.000000  O     
 O35    1.0    0.005920    0.066530    0.615270 Biso 1.000000  O     
 O36    1.0    0.890610    0.654080    0.615270 Biso 1.000000  O     
 C1     1.0    0.018000    0.203300    0.002500 Biso 1.000000  C     
 C2     1.0    0.015300    0.642000    0.002500 Biso 1.000000  C     
 C3     1.0    0.456700    0.644700    0.002500 Biso 1.000000  C     
 C4     1.0    0.642000    0.456700    0.502500 Biso 1.000000  C     
 C5     1.0    0.644700    0.018000    0.502500 Biso 1.000000  C     
 C6     1.0    0.203300    0.015300    0.502500 Biso 1.000000  C     
 C7     1.0    0.356400    0.316100   -0.004800 Biso 1.000000  C     
 C8     1.0    0.789700    0.303600   -0.004800 Biso 1.000000  C     
 C9     1.0    0.343900    0.870300   -0.004800 Biso 1.000000  C     
 C10    1.0    0.303600    0.343900    0.495200 Biso 1.000000  C     
 C11    1.0    0.870300    0.356400    0.495200 Biso 1.000000  C     
 C12    1.0    0.316100    0.789700    0.495200 Biso 1.000000  C     
 C13    1.0    0.123100    0.980800    1.021500 Biso 1.000000  C     
 C14    1.0    0.687700    0.536900    1.021500 Biso 1.000000  C     
 C15    1.0    0.679200    0.972300    1.021500 Biso 1.000000  C     
 C16    1.0    0.536900    0.679200    0.521500 Biso 1.000000  C     
 C17    1.0    0.972300    0.123100    0.521500 Biso 1.000000  C     
 C18    1.0    0.980800    0.687700    0.521500 Biso 1.000000  C     
 H1     1.0    0.970500    0.116500   -0.003900 Biso 1.000000  H     
 H2     1.0    0.976000    0.689500   -0.003900 Biso 1.000000  H     
 H3     1.0    0.543500    0.684000   -0.003900 Biso 1.000000  H     
 H4     1.0    0.689500    0.543500    0.496100 Biso 1.000000  H     
 H5     1.0    0.684000    0.970500    0.496100 Biso 1.000000  H     
 H6     1.0    0.116500    0.976000    0.496100 Biso 1.000000  H     
 H7     1.0    0.322600    0.368000   -0.020600 Biso 1.000000  H     
 H8     1.0    0.875400    0.337400   -0.020600 Biso 1.000000  H     
 H9     1.0    0.292000    0.784600   -0.020600 Biso 1.000000  H     
 H10    1.0    0.337400    0.292000    0.479400 Biso 1.000000  H     
 H11    1.0    0.784600    0.322600    0.479400 Biso 1.000000  H     
 H12    1.0    0.368000    0.875400    0.479400 Biso 1.000000  H     
 H13    1.0    0.207900    0.034700    1.041600 Biso 1.000000  H     
 H14    1.0    0.656800    0.452100    1.041600 Biso 1.000000  H     
 H15    1.0    0.625300    0.003200    1.041600 Biso 1.000000  H     
 H16    1.0    0.452100    0.625300    0.541600 Biso 1.000000  H     
 H17    1.0    0.003200    0.207900    0.541600 Biso 1.000000  H     
 H18    1.0    0.034700    0.656800    0.541600 Biso 1.000000  H     
 H19    1.0    0.094156    0.473390    0.666310 Biso 1.000000  H     
 H20    1.0    0.186610    0.450768    0.666310 Biso 1.000000  H     
 H21    1.0    0.209232    0.565844    0.666310 Biso 1.000000  H     
 H22    1.0    0.565844    0.186610    0.166310 Biso 1.000000  H     
 H23    1.0    0.473390    0.209232    0.166310 Biso 1.000000  H     
 H24    1.0    0.450768    0.094156    0.166310 Biso 1.000000  H     
 H25    1.0    0.163333    0.496667    0.816310 Biso 1.000000  H     
 H26    1.0    0.496667    0.163333    0.316310 Biso 1.000000  H     
 H27    1.0    0.518358    0.115106    0.671690 Biso 1.000000  H     
 H28    1.0    0.544894    0.233250    0.671690 Biso 1.000000  H     
 H29    1.0    0.426750    0.141642    0.671690 Biso 1.000000  H     
 H30    1.0    0.141642    0.544894    0.171690 Biso 1.000000  H     
 H31    1.0    0.115106    0.426750    0.171690 Biso 1.000000  H     
 H32    1.0    0.233250    0.518358    0.171690 Biso 1.000000  H     
 H33    1.0    0.496667    0.163333    0.820690 Biso 1.000000  H     
 H34    1.0    0.163333    0.496667    0.320690 Biso 1.000000  H     
 H35    1.0    0.854000    0.904700    0.331000 Biso 1.000000  H     
 H36    1.0    0.755300    0.779300    0.331000 Biso 1.000000  H     
 H37    1.0    0.880700    0.806000    0.331000 Biso 1.000000  H     
 H38    1.0    0.806000    0.755300    0.831000 Biso 1.000000  H     
 H39    1.0    0.904700    0.880700    0.831000 Biso 1.000000  H     
 H40    1.0    0.779300    0.854000    0.831000 Biso 1.000000  H     
 H41    1.0    0.830000    0.830000    0.190000 Biso 1.000000  H     
 H42    1.0    0.830000    0.830000    0.690000 Biso 1.000000  H     
 N1     1.0    0.163333    0.496667    0.710210 Biso 1.000000  N     
 N2     1.0    0.496667    0.163333    0.210210 Biso 1.000000  N     
 N3     1.0    0.496667    0.163333    0.711890 Biso 1.000000  N     
 N4     1.0    0.163333    0.496667    0.211890 Biso 1.000000  N     
 N5     1.0    0.830000    0.830000    0.302800 Biso 1.000000  N     
 N6     1.0    0.830000    0.830000    0.802800 Biso 1.000000  N     
