_cell_length_a                         12.587100
_cell_length_b                         12.587100
_cell_length_c                         8.223700
_cell_angle_alpha                      90.000000
_cell_angle_beta                       90.000000
_cell_angle_gamma                      120.000008
_space_group_IT_number                 1
 loop_
 _space_group_symop_operation_xyz 
 'x, y, z' 
 loop_ 
 _atom_site_label 
 _atom_site_occupancy 
 _atom_site_fract_x 
 _atom_site_fract_y
 _atom_site_fract_z
 _atom_site_adp_type
 _atom_site_U_iso_or_equiv
 _atom_site_type_symbol
 Co1    1.0    0.164039    0.162611    0.755500 Biso 1.000000  Co    
 Co2    1.0    0.828572    0.495961    0.755500 Biso 1.000000  Co    
 Co3    1.0    0.497389    0.831428    0.755500 Biso 1.000000  Co    
 Co4    1.0    0.495961    0.497389    0.255500 Biso 1.000000  Co    
 Co5    1.0    0.831428    0.164039    0.255500 Biso 1.000000  Co    
 Co6    1.0    0.162611    0.828572    0.255500 Biso 1.000000  Co    
 O1     1.0    0.099285    0.256067    0.899550 Biso 1.000000  O     
 O2     1.0    0.986782    0.560715    0.899550 Biso 1.000000  O     
 O3     1.0    0.403933    0.673218    0.899550 Biso 1.000000  O     
 O4     1.0    0.560715    0.403933    0.399550 Biso 1.000000  O     
 O5     1.0    0.673218    0.099285    0.399550 Biso 1.000000  O     
 O6     1.0    0.256067    0.986782    0.399550 Biso 1.000000  O     
 O7     1.0    0.989438    0.255383    0.111850 Biso 1.000000  O     
 O8     1.0    0.095945    0.670562    0.111850 Biso 1.000000  O     
 O9     1.0    0.404617    0.564055    0.111850 Biso 1.000000  O     
 O10    1.0    0.670562    0.404617    0.611850 Biso 1.000000  O     
 O11    1.0    0.564055    0.989438    0.611850 Biso 1.000000  O     
 O12    1.0    0.255383    0.095945    0.611850 Biso 1.000000  O     
 O13    1.0    0.322486    0.228709    0.898676 Biso 1.000000  O     
 O14    1.0    0.736223    0.337514    0.898676 Biso 1.000000  O     
 O15    1.0    0.431291    0.923777    0.898676 Biso 1.000000  O     
 O16    1.0    0.337514    0.431291    0.398676 Biso 1.000000  O     
 O17    1.0    0.923777    0.322486    0.398676 Biso 1.000000  O     
 O18    1.0    0.228709    0.736223    0.398676 Biso 1.000000  O     
 O19    1.0    0.430639    0.339546    0.111356 Biso 1.000000  O     
 O20    1.0    0.738907    0.229361    0.111356 Biso 1.000000  O     
 O21    1.0    0.320454    0.921093    0.111356 Biso 1.000000  O     
 O22    1.0    0.229361    0.320454    0.611356 Biso 1.000000  O     
 O23    1.0    0.921093    0.430639    0.611356 Biso 1.000000  O     
 O24    1.0    0.339546    0.738907    0.611356 Biso 1.000000  O     
 O25    1.0    0.072662    0.004933    0.900596 Biso 1.000000  O     
 O26    1.0    0.762271    0.587338    0.900596 Biso 1.000000  O     
 O27    1.0    0.655067    0.897729    0.900596 Biso 1.000000  O     
 O28    1.0    0.587338    0.655067    0.400596 Biso 1.000000  O     
 O29    1.0    0.897729    0.072662    0.400596 Biso 1.000000  O     
 O30    1.0    0.004933    0.762271    0.400596 Biso 1.000000  O     
 O31    1.0    0.069158    0.893661    0.112756 Biso 1.000000  O     
 O32    1.0    0.654503    0.590842    0.112756 Biso 1.000000  O     
 O33    1.0    0.766339    0.005497    0.112756 Biso 1.000000  O     
 O34    1.0    0.590842    0.766339    0.612756 Biso 1.000000  O     
 O35    1.0    0.005497    0.069158    0.612756 Biso 1.000000  O     
 O36    1.0    0.893661    0.654503    0.612756 Biso 1.000000  O     
 C1     1.0    0.017190    0.203300    0.004000 Biso 1.000000  C     
 C2     1.0    0.016110    0.642810    0.004000 Biso 1.000000  C     
 C3     1.0    0.456700    0.643890    0.004000 Biso 1.000000  C     
 C4     1.0    0.642810    0.456700    0.504000 Biso 1.000000  C     
 C5     1.0    0.643890    0.017190    0.504000 Biso 1.000000  C     
 C6     1.0    0.203300    0.016110    0.504000 Biso 1.000000  C     
 C7     1.0    0.352650    0.312350    0.001080 Biso 1.000000  C     
 C8     1.0    0.789700    0.307350    0.001080 Biso 1.000000  C     
 C9     1.0    0.347650    0.870300    0.001080 Biso 1.000000  C     
 C10    1.0    0.307350    0.347650    0.501080 Biso 1.000000  C     
 C11    1.0    0.870300    0.352650    0.501080 Biso 1.000000  C     
 C12    1.0    0.312350    0.789700    0.501080 Biso 1.000000  C     
 C13    1.0    0.123100    0.978250    1.011600 Biso 1.000000  C     
 C14    1.0    0.685150    0.536900    1.011600 Biso 1.000000  C     
 C15    1.0    0.681750    0.974850    1.011600 Biso 1.000000  C     
 C16    1.0    0.536900    0.681750    0.511600 Biso 1.000000  C     
 C17    1.0    0.974850    0.123100    0.511600 Biso 1.000000  C     
 C18    1.0    0.978250    0.685150    0.511600 Biso 1.000000  C     
 H1     1.0    0.972150    0.116500    0.001440 Biso 1.000000  H     
 H2     1.0    0.974350    0.687850    0.001440 Biso 1.000000  H     
 H3     1.0    0.543500    0.685650    0.001440 Biso 1.000000  H     
 H4     1.0    0.687850    0.543500    0.501440 Biso 1.000000  H     
 H5     1.0    0.685650    0.972150    0.501440 Biso 1.000000  H     
 H6     1.0    0.116500    0.974350    0.501440 Biso 1.000000  H     
 H7     1.0    0.313420    0.358820   -0.005240 Biso 1.000000  H     
 H8     1.0    0.875400    0.346580   -0.005240 Biso 1.000000  H     
 H9     1.0    0.301180    0.784600   -0.005240 Biso 1.000000  H     
 H10    1.0    0.346580    0.301180    0.494760 Biso 1.000000  H     
 H11    1.0    0.784600    0.313420    0.494760 Biso 1.000000  H     
 H12    1.0    0.358820    0.875400    0.494760 Biso 1.000000  H     
 H13    1.0    0.207900    0.025250    1.019640 Biso 1.000000  H     
 H14    1.0    0.647350    0.452100    1.019640 Biso 1.000000  H     
 H15    1.0    0.634750    0.012650    1.019640 Biso 1.000000  H     
 H16    1.0    0.452100    0.634750    0.519640 Biso 1.000000  H     
 H17    1.0    0.012650    0.207900    0.519640 Biso 1.000000  H     
 H18    1.0    0.025250    0.647350    0.519640 Biso 1.000000  H     
 H19    1.0    0.104264    0.432916    0.694616 Biso 1.000000  H     
 H20    1.0    0.205224    0.469513    0.782720 Biso 1.000000  H     
 H21    1.0    0.206891    0.535037    0.654992 Biso 1.000000  H     
 H22    1.0    0.573324    0.192061    0.226937 Biso 1.000000  H     
 H23    1.0    0.472363    0.155463    0.138834 Biso 1.000000  H     
 H24    1.0    0.470697    0.089940    0.266561 Biso 1.000000  H     
 H25    1.0    0.142068    0.539015    0.798944 Biso 1.000000  H     
 H26    1.0    0.475402    0.205681    0.298944 Biso 1.000000  H     
 H27    1.0    0.537921    0.136649    0.787075 Biso 1.000000  H     
 H28    1.0    0.539201    0.202411    0.656438 Biso 1.000000  H     
 H29    1.0    0.434191    0.100593    0.700396 Biso 1.000000  H     
 H30    1.0    0.136286    0.489787    0.142196 Biso 1.000000  H     
 H31    1.0    0.135006    0.424025    0.272834 Biso 1.000000  H     
 H32    1.0    0.240016    0.525843    0.228875 Biso 1.000000  H     
 H33    1.0    0.477437    0.208766    0.802216 Biso 1.000000  H     
 H34    1.0    0.144103    0.542100    0.302216 Biso 1.000000  H     
 H35    1.0    0.834353    0.887836    0.213060 Biso 1.000000  H     
 H36    1.0    0.756434    0.779949    0.307230 Biso 1.000000  H     
 H37    1.0    0.883247    0.856790    0.351808 Biso 1.000000  H     
 H38    1.0    0.815003    0.795214    0.868339 Biso 1.000000  H     
 H39    1.0    0.892922    0.903101    0.774168 Biso 1.000000  H     
 H40    1.0    0.766109    0.826260    0.729591 Biso 1.000000  H     
 H41    1.0    0.851271    0.783941    0.207822 Biso 1.000000  H     
 H42    1.0    0.851271    0.783941    0.707822 Biso 1.000000  H     
 N1     1.0    0.163329    0.496674    0.736580 Biso 1.000000  N     
 N2     1.0    0.496663    0.163340    0.236580 Biso 1.000000  N     
 N3     1.0    0.496666    0.163337    0.738265 Biso 1.000000  N     
 N4     1.0    0.163332    0.496671    0.238265 Biso 1.000000  N     
 N5     1.0    0.829996    0.830008    0.274124 Biso 1.000000  N     
 N6     1.0    0.829996    0.830008    0.774124 Biso 1.000000  N     
