####################################################################### 
# 
# This file contains crystal structure data downloaded from the 
# Cambridge Structural Database (CSD) hosted by the Cambridge 
# Crystallographic Data Centre (CCDC).
# 
# Full information about CCDC data access policies and citation 
# guidelines are available at http://www.ccdc.cam.ac.uk/access/V1 
# 
# Audit and citation data items may have been added by the CCDC. 
# Please retain this information to preserve the provenance of 
# this file and to allow appropriate attribution of the data. 
# 
#######################################################################

data_shelx
_audit_block_doi                 10.5517/ccdc.csd.cc1prmz1
_database_code_depnum_ccdc_archive 'CCDC 1571854'
loop_
_citation_id
_citation_doi
_citation_year
1 10.1002/chem.201703140 2018
_audit_update_record             
;
2017-08-31 deposited with the CCDC.	2022-08-11 downloaded from the CCDC.
;

_audit_creation_method           SHELXL-2014
_chemical_name_systematic        
;
 ?
;
_chemical_name_common            ?
_chemical_melting_point          ?
_chemical_formula_moiety         ?
_chemical_formula_sum            'C4 H9 Co N O6'
_chemical_formula_weight         226.05

loop_
_atom_type_symbol
_atom_type_description
_atom_type_scat_dispersion_real
_atom_type_scat_dispersion_imag
_atom_type_scat_source
C C 0.0000 0.0000
'Neutron Data Booklet, ILL Grenoble, France (2003) ISBN 0-9704143-7-4'
H H 0.0000 0.0000
'Neutron Data Booklet, ILL Grenoble, France (2003) ISBN 0-9704143-7-4'
Co Co 0.0000 0.0000
'Neutron Data Booklet, ILL Grenoble, France (2003) ISBN 0-9704143-7-4'
N N 0.0000 0.0000
'Neutron Data Booklet, ILL Grenoble, France (2003) ISBN 0-9704143-7-4'
O O 0.0000 0.0000
'Neutron Data Booklet, ILL Grenoble, France (2003) ISBN 0-9704143-7-4'

_space_group_crystal_system      orthorhombic
_space_group_IT_number           62
_space_group_name_H-M_alt        'P n m a'
_space_group_name_Hall           '-P 2ac 2n'

_shelx_space_group_comment       
;
The symmetry employed for this shelxl refinement is uniquely defined
by the following loop, which should always be used as a source of
symmetry information in preference to the above space-group names.
They are only intended as comments.
;

loop_
_space_group_symop_operation_xyz
'x, y, z'
'-x+1/2, -y, z+1/2'
'-x, y+1/2, -z'
'x+1/2, -y+1/2, -z+1/2'
'-x, -y, -z'
'x-1/2, y, -z-1/2'
'x, -y-1/2, z'
'-x-1/2, y-1/2, z-1/2'

_cell_length_a                   8.2827(2)
_cell_length_b                   11.6735(2)
_cell_length_c                   8.1543(2)
_cell_angle_alpha                90
_cell_angle_beta                 90
_cell_angle_gamma                90
_cell_volume                     788.42(3)
_cell_formula_units_Z            4
_cell_measurement_temperature    135(2)
_cell_measurement_reflns_used    102
_cell_measurement_theta_min      4.663
_cell_measurement_theta_max      61.131

_exptl_crystal_description       prism
_exptl_crystal_colour            red
_exptl_crystal_density_meas      ?
_exptl_crystal_density_method    ?
_exptl_crystal_density_diffrn    1.904
_exptl_crystal_F_000             460
_exptl_transmission_factor_min   ?
_exptl_transmission_factor_max   ?
_exptl_crystal_size_max          4.8
_exptl_crystal_size_mid          3.5
_exptl_crystal_size_min          3.2
_exptl_absorpt_coefficient_mu    0.03884
_shelx_estimated_absorpt_T_min   ?
_shelx_estimated_absorpt_T_max   ?
_exptl_absorpt_correction_type   ?
_exptl_absorpt_correction_T_min  ?
_exptl_absorpt_correction_T_max  ?
_exptl_absorpt_process_details   ?

_exptl_special_details           
;
 ?
;

_diffrn_ambient_temperature      135(2)
_diffrn_radiation_wavelength     0.94905
_diffrn_radiation_type           neutrons
_diffrn_source                   'neutron source'
_diffrn_source_type              'ILL High Flux Reactor, beam H11'
_diffrn_radiation_monochromator  'copper 331'
_diffrn_measurement_device_type  
'D19 position-sensitive detector diffractometer'
_diffrn_measurement_method       'omega step-scans'
_diffrn_detector_area_resol_mean '1.56 mm vert. 2.5 mm hor.'
_diffrn_reflns_number            9311
_diffrn_reflns_av_unetI/netI     0.0242
_diffrn_reflns_av_R_equivalents  0.0332
_diffrn_reflns_limit_h_min       -14
_diffrn_reflns_limit_h_max       15
_diffrn_reflns_limit_k_min       -13
_diffrn_reflns_limit_k_max       21
_diffrn_reflns_limit_l_min       -13
_diffrn_reflns_limit_l_max       10
_diffrn_reflns_theta_min         4.663
_diffrn_reflns_theta_max         61.131
_diffrn_reflns_theta_full        34.710
_diffrn_measured_fraction_theta_max 0.899
_diffrn_measured_fraction_theta_full 0.968
_diffrn_reflns_Laue_measured_fraction_max 0.899
_diffrn_reflns_Laue_measured_fraction_full 0.968
_diffrn_reflns_point_group_measured_fraction_max 0.899
_diffrn_reflns_point_group_measured_fraction_full 0.968
_reflns_number_total             2413
_reflns_number_gt                2258
_reflns_threshold_expression     'I > 2\s(I)'
_reflns_Friedel_coverage         0.000
_reflns_Friedel_fraction_max     .
_reflns_Friedel_fraction_full    .

_reflns_special_details          
;
 Reflections were merged by SHELXL according to the crystal
 class for the calculation of statistics and refinement.
 
 _reflns_Friedel_fraction is defined as the number of unique
 Friedel pairs measured divided by the number that would be
 possible theoretically, ignoring centric projections and
 systematic absences.
;

_computing_data_collection       
;
'DIRAX (Duisenberg, A.J.M.(1992). J. Appl. Cryst. 25, 92-96),
 ILL HKLGEN, MAD'
;
_computing_cell_refinement       'ILL RAFD19'
_computing_data_reduction        
;
 'ILL RETREAT (Wilkinson, C., Khamis, H.W., Stansfield, R.F.D., McIntyre, G.J.,
 J. Appl. Crystallogr. 1988, 21, 471.)'
;
_computing_structure_solution    ?
_computing_structure_refinement  'SHELXL-2014 (Sheldrick, 2014)'
_computing_molecular_graphics    'Diamond 4.0'
_computing_publication_material  ?

_refine_special_details          
;
 ?
;
_refine_ls_structure_factor_coef Fsqd
_refine_ls_matrix_type           full
_refine_ls_weighting_scheme      calc
_refine_ls_weighting_details     
'w=1/[\s^2^(Fo^2^)+(0.0247P)^2^+1.5379P] where P=(Fo^2^+2Fc^2^)/3'
_atom_sites_solution_primary     ?
_atom_sites_solution_secondary   ?
_atom_sites_solution_hydrogens   difmap
_refine_ls_hydrogen_treatment    refall
_refine_ls_extinction_method     SHELXL
_refine_ls_extinction_coef       0.0276(13)
_refine_ls_extinction_expression Fc^*^=kFc[1+0.001xFc^2^\l^3^/sin(2\q)]^-1/4^
_refine_ls_number_reflns         2413
_refine_ls_number_parameters     107
_refine_ls_number_restraints     0
_refine_ls_R_factor_all          0.0370
_refine_ls_R_factor_gt           0.0339
_refine_ls_wR_factor_ref         0.0789
_refine_ls_wR_factor_gt          0.0775
_refine_ls_goodness_of_fit_ref   1.202
_refine_ls_restrained_S_all      1.202
_refine_ls_shift/su_max          0.001
_refine_ls_shift/su_mean         0.000

loop_
_atom_site_label
_atom_site_type_symbol
_atom_site_fract_x
_atom_site_fract_y
_atom_site_fract_z
_atom_site_U_iso_or_equiv
_atom_site_adp_type
_atom_site_occupancy
_atom_site_site_symmetry_order
_atom_site_calc_flag
_atom_site_refinement_flags_posn
_atom_site_refinement_flags_adp
_atom_site_refinement_flags_occupancy
_atom_site_disorder_assembly
_atom_site_disorder_group
C1 C 0.71995(4) -0.02996(3) 0.27955(5) 0.01375(7) Uani 1 1 d . . . . .
C2 C 0.49025(6) 0.2500 0.05642(7) 0.01280(9) Uani 1 2 d S T P . .
C3 C 1.08538(8) 0.2500 -0.02413(10) 0.02303(12) Uani 1 2 d S T P . .
Co1 Co 0.5000 0.0000 0.0000 0.00975(17) Uani 1 2 d S . P . .
N1 N 0.91466(5) 0.2500 0.02987(6) 0.01732(8) Uani 1 2 d S T P . .
O1 O 0.59638(5) -0.07042(4) 0.21424(6) 0.01480(8) Uani 1 1 d . . . . .
O2 O 0.77307(5) -0.05992(4) 0.41823(6) 0.01403(8) Uani 1 1 d . . . . .
O3 O 0.47438(6) 0.15526(4) 0.12751(6) 0.01471(8) Uani 1 1 d . . . . .
H1 H 0.78834(19) 0.03569(15) 0.21325(19) 0.0466(4) Uani 1 1 d . . . . .
H2 H 0.5190(3) 0.2500 -0.0749(2) 0.0400(4) Uani 1 2 d S T P . .
H2N H 0.85355(14) 0.32201(10) -0.01311(17) 0.0319(2) Uani 1 1 d . . . . .
H1N H 0.9111(2) 0.2500 0.1558(2) 0.0426(4) Uani 1 2 d S T P . .
H3B H 1.1449(2) 0.32522(19) 0.0215(3) 0.0605(5) Uani 1 1 d . . . . .
H3A H 1.0890(3) 0.2500 -0.1566(3) 0.0586(7) Uani 1 2 d S T P . .

loop_
_atom_site_aniso_label
_atom_site_aniso_U_11
_atom_site_aniso_U_22
_atom_site_aniso_U_33
_atom_site_aniso_U_23
_atom_site_aniso_U_13
_atom_site_aniso_U_12
C1 0.01339(12) 0.01574(14) 0.01212(16) 0.00195(10) -0.00235(9) -0.00345(10)
C2 0.01501(16) 0.01236(17) 0.0110(2) 0.000 0.00145(14) 0.000
C3 0.0181(2) 0.0272(3) 0.0238(3) 0.000 -0.0019(2) 0.000
Co1 0.0094(3) 0.0107(4) 0.0091(5) -0.0001(3) 0.0004(3) -0.0010(3)
N1 0.01838(14) 0.01955(16) 0.01404(18) 0.000 -0.00345(11) 0.000
O1 0.01400(14) 0.01746(16) 0.01295(19) 0.00260(11) -0.00387(11) -0.00359(11)
O2 0.01235(13) 0.01836(16) 0.01137(18) 0.00157(11) -0.00236(11) -0.00286(11)
O3 0.01957(16) 0.01232(14) 0.01225(18) 0.00045(11) 0.00230(12) -0.00122(12)
H1 0.0467(7) 0.0571(8) 0.0361(7) 0.0236(6) -0.0159(5) -0.0325(6)
H2 0.0728(14) 0.0285(6) 0.0186(7) 0.000 0.0128(7) 0.000
H2N 0.0314(4) 0.0281(4) 0.0361(6) 0.0013(4) -0.0044(4) 0.0049(3)
H1N 0.0374(8) 0.0720(14) 0.0184(8) 0.000 -0.0022(5) 0.000
H3B 0.0384(6) 0.0577(10) 0.0853(15) -0.0245(10) 0.0006(8) -0.0198(7)
H3A 0.0422(10) 0.102(2) 0.0312(13) 0.000 0.0065(8) 0.000

_geom_special_details            
;
 All esds (except the esd in the dihedral angle between two l.s. planes)
 are estimated using the full covariance matrix.  The cell esds are taken
 into account individually in the estimation of esds in distances, angles
 and torsion angles; correlations between esds in cell parameters are only
 used when they are defined by crystal symmetry.  An approximate (isotropic)
 treatment of cell esds is used for estimating esds involving l.s. planes.
;

loop_
_geom_bond_atom_site_label_1
_geom_bond_atom_site_label_2
_geom_bond_distance
_geom_bond_site_symmetry_2
_geom_bond_publ_flag
C1 H1 1.0957(12) . ?
C1 O1 1.2467(5) . ?
C1 O2 1.2628(6) . ?
C2 H2 1.0973(19) . ?
C2 O3 1.2556(5) . ?
C2 O3 1.2556(5) 7_565 ?
C3 H3B 1.0733(17) 7_565 ?
C3 H3B 1.0733(17) . ?
C3 H3A 1.080(3) . ?
C3 N1 1.4810(8) . ?
Co1 O1 2.0892(4) 5_655 ?
Co1 O1 2.0892(4) . ?
Co1 O3 2.1002(4) 5_655 ?
Co1 O3 2.1002(4) . ?
Co1 O2 2.1134(4) 2_654 ?
Co1 O2 2.1134(4) 6_556 ?
N1 H1N 1.027(2) . ?
N1 H2N 1.0419(11) 7_565 ?
N1 H2N 1.0419(11) . ?
O2 Co1 2.1134(4) 2_655 ?

loop_
_geom_angle_atom_site_label_1
_geom_angle_atom_site_label_2
_geom_angle_atom_site_label_3
_geom_angle
_geom_angle_site_symmetry_1
_geom_angle_site_symmetry_3
_geom_angle_publ_flag
H1 C1 O1 118.60(8) . . ?
H1 C1 O2 117.09(7) . . ?
O1 C1 O2 124.31(4) . . ?
H2 C2 O3 118.26(3) . . ?
H2 C2 O3 118.26(3) . 7_565 ?
O3 C2 O3 123.49(6) . 7_565 ?
H3B C3 H3B 109.8(3) 7_565 . ?
H3B C3 H3A 109.48(18) 7_565 . ?
H3B C3 H3A 109.48(18) . . ?
H3B C3 N1 109.58(12) 7_565 . ?
H3B C3 N1 109.58(12) . . ?
H3A C3 N1 108.91(15) . . ?
O1 Co1 O1 180.0 5_655 . ?
O1 Co1 O3 87.947(19) 5_655 5_655 ?
O1 Co1 O3 92.053(19) . 5_655 ?
O1 Co1 O3 92.052(19) 5_655 . ?
O1 Co1 O3 87.947(19) . . ?
O3 Co1 O3 179.999(11) 5_655 . ?
O1 Co1 O2 86.892(18) 5_655 2_654 ?
O1 Co1 O2 93.108(18) . 2_654 ?
O3 Co1 O2 92.267(17) 5_655 2_654 ?
O3 Co1 O2 87.734(17) . 2_654 ?
O1 Co1 O2 93.108(18) 5_655 6_556 ?
O1 Co1 O2 86.892(18) . 6_556 ?
O3 Co1 O2 87.733(17) 5_655 6_556 ?
O3 Co1 O2 92.266(17) . 6_556 ?
O2 Co1 O2 180.00(2) 2_654 6_556 ?
H1N N1 H2N 108.79(10) . 7_565 ?
H1N N1 H2N 108.79(10) . . ?
H2N N1 H2N 107.57(14) 7_565 . ?
H1N N1 C3 108.96(12) . . ?
H2N N1 C3 111.33(8) 7_565 . ?
H2N N1 C3 111.33(8) . . ?
C1 O1 Co1 121.45(3) . . ?
C1 O2 Co1 120.05(3) . 2_655 ?
C2 O3 Co1 121.40(4) . . ?

_refine_diff_density_max         0.825
_refine_diff_density_min         -1.202
_refine_diff_density_rms         0.160

_shelxl_version_number           2014-3

_shelx_res_file                  
;
TITL cofor in P n m a
CELL  0.94905   8.2827  11.6735   8.1543   90.000   90.000   90.000
ZERR     4.00   0.0002   0.0002   0.0002    0.000    0.000    0.000
LATT   1
SYMM  1/2 - X, - Y, 1/2 + Z
SYMM  - X, 1/2 + Y, - Z
SYMM  1/2 + X, 1/2 - Y, 1/2 - Z
NEUT
SFAC  C    H    CO   N    O
UNIT  16 36 4 4 24
MERG   2
FMAP  -2
PLAN   20
ACTA
BOND
L.S.  14
WGHT    0.024700    1.537900
EXTI    0.027575
FVAR       0.26743
C1    1    0.719947   -0.029961    0.279547    11.00000    0.01339    0.01574 =
         0.01212    0.00195   -0.00235   -0.00345
C2    1    0.490255    0.250000    0.056418    10.50000    0.01501    0.01236 =
         0.01102    0.00000    0.00145    0.00000
C3    1    1.085379    0.250000   -0.024129    10.50000    0.01809    0.02723 =
         0.02377    0.00000   -0.00191    0.00000
CO1   3    0.500000    0.000000    0.000000    10.50000    0.00945    0.01071 =
         0.00908   -0.00006    0.00036   -0.00103
N1    4    0.914656    0.250000    0.029867    10.50000    0.01838    0.01955 =
         0.01404    0.00000   -0.00345    0.00000
O1    5    0.596375   -0.070419    0.214237    11.00000    0.01400    0.01746 =
         0.01295    0.00260   -0.00387   -0.00359
O2    5    0.773072   -0.059917    0.418228    11.00000    0.01235    0.01836 =
         0.01137    0.00157   -0.00236   -0.00286
O3    5    0.474385    0.155260    0.127511    11.00000    0.01957    0.01232 =
         0.01225    0.00045    0.00230   -0.00122
H1    2    0.788339    0.035693    0.213249    11.00000    0.04673    0.05709 =
         0.03605    0.02362   -0.01591   -0.03254
H2    2    0.519037    0.250000   -0.074934    10.50000    0.07281    0.02853 =
         0.01856    0.00000    0.01283    0.00000
H2N   2    0.853553    0.322014   -0.013107    11.00000    0.03138    0.02815 =
         0.03610    0.00134   -0.00443    0.00488
H1N   2    0.911057    0.250000    0.155785    10.50000    0.03735    0.07196 =
         0.01838    0.00000   -0.00217    0.00000
H3B   2    1.144853    0.325219    0.021480    11.00000    0.03844    0.05772 =
         0.08525   -0.02451    0.00060   -0.01976
H3A   2    1.089043    0.250000   -0.156570    10.50000    0.04224    0.10243 =
         0.03115    0.00000    0.00645    0.00000
HKLF    4

REM  cofor in P n m a
REM R1 =  0.0339 for    2258 Fo > 4sig(Fo)  and  0.0370 for all    2413 data
REM    107 parameters refined using      0 restraints

END

WGHT      0.0247      1.5404

REM Highest difference peak  0.825,  deepest hole -1.202,  1-sigma level  0.160
Q1    1   0.4589  0.2500 -0.0546  10.50000  0.05   -1.20
Q2    1   0.7360  0.0533  0.2501  11.00000  0.05   -0.86
Q3    1   0.5616  0.2500 -0.0276  10.50000  0.05   -0.83
Q4    1   0.8551 -0.0013  0.1707  11.00000  0.05    0.82
Q5    1   0.6586  0.2500 -0.1320  10.50000  0.05    0.78
Q6    1   0.5108  0.2500 -0.0342  10.50000  0.05    0.77
Q7    1   0.7816 -0.0611  0.2715  11.00000  0.05   -0.73
Q8    1   0.7627  0.0788  0.2200  11.00000  0.05    0.70
Q9    1   1.0588  0.2500  0.0426  10.50000  0.05    0.68
Q10   1   0.4565  0.2500 -0.1207  10.50000  0.05    0.68
Q11   1   1.1395  0.2839  0.0881  11.00000  0.05   -0.67
Q12   1   1.0931  0.2909 -0.1162  11.00000  0.05   -0.66
Q13   1   0.5402 -0.0534  0.1935  11.00000  0.05   -0.65
Q14   1   0.4532  0.3033  0.0594  11.00000  0.05   -0.64
Q15   1   0.9527  0.2825 -0.0128  11.00000  0.05   -0.64
Q16   1   0.5794  0.2724 -0.0891  11.00000  0.05    0.63
Q17   1   0.7430 -0.0444  0.3496  11.00000  0.05   -0.62
Q18   1   0.5154  0.2825  0.0153  11.00000  0.05   -0.62
Q19   1   0.8722  0.2948  0.0314  11.00000  0.05   -0.62
Q20   1   0.4718  0.2500  0.1386  10.50000  0.05   -0.61
;
_shelx_res_checksum              61005

_shelx_hkl_file                  
;
   3   5  -4  264.61    3.91   1
   2   2  -2  133.48    2.15   1
   3   6  -6   92.68    2.63   1
   3   7  -6  256.14    4.52   1
   2   7  -9    2.45    0.48   1
   2   6  -9   12.86    0.88   1
   2   1  -3  313.60    3.96   1
   3   5  -6   80.17    2.29   1
   2   8  -9   26.92    1.84   1
   3   4  -5  135.30    2.70   1
  -1   8 -12    2.66    0.53   1
   2   5  -9  245.64    4.39   1
   0  10 -11    0.12    0.38   1
  -1  12 -11   19.95    1.11   1
   1  10 -10   25.24    1.22   1
   3   4  -4   50.53    1.69   1
  -2  11 -12   79.03    3.09   1
   3   4  -6  218.05    3.70   1
  -1   9 -12   68.58    2.91   1
   3   6  -7    0.70    0.35   1
   2   9  -9    3.69    0.61   1
   3   7  -7   49.81    2.16   1
   2   4  -9   31.53    1.74   1
   3   5  -7  517.78    6.79   1
   3   8  -7    6.44    0.58   1
   3   3  -5   18.58    1.11   1
  -1  10 -12   33.76    1.80   1
   0  11 -11   26.35    1.25   1
   1  11 -10    8.55    0.73   1
   2  10  -9   36.84    2.19   1
   3   4  -7   43.72    1.77   1
   3   3  -6   93.44    2.34   1
   3   3  -4   11.57    0.62   1
   3   4  -3  151.84    2.79   1
   2   0  -4   43.75    1.32   1
   1   7 -11    5.87    0.67   1
   1   6 -11    3.23    0.61   1
   1   8 -11    4.50    0.65   1
  -2  12 -12   38.37    2.39   1
   3   6  -8    4.56    0.53   1
   3   7  -8   38.26    1.99   1
  -1  13 -11   97.81    3.54   1
   2   7 -10    0.06    0.44   1
   2   3  -1   76.19    1.35   1
   3   8  -8  362.67    5.68   1
   2   6 -10   34.12    1.69   1
   3   5  -8    0.49    0.42   1
   1   9 -11   81.48    2.68   1
   0   7 -12   -0.01    0.46   1
   2   8 -10    0.62    0.47   1
  -1  11 -12   17.15    1.01   1
   0   8 -12   52.65    2.15   1
   3   3  -7  336.06    5.04   1
   2   5 -10    2.20    0.51   1
   3   2  -5  127.11    2.49   1
   0  12 -11    0.15    0.55   1
   2   9 -10   14.93    0.98   1
   3   4  -8    0.37    0.36   1
   0   9 -12    0.23    0.51   1
   3   2  -6    2.82    0.35   1
   1  10 -11   79.71    2.69   1
   3   3  -3   56.20    1.67   1
  -2   9 -13  166.74    3.97   1
   2   1  -2    5.80    0.34   1
   3   2  -4  473.42    5.89   1
   0  10 -12  114.65    3.42   1
   2  10 -10   72.50    2.90   1
   2   0  -3  714.98    8.02   1
   3   7  -9   67.39    2.43   1
   3   6  -9  131.78    3.25   1
   3   2  -7   41.32    1.71   1
   3   3  -8    1.27    0.39   1
  -2  10 -13    4.83    0.63   1
  -1  12 -12    2.13    0.43   1
   3   8  -9    2.76    0.51   1
   3   5  -9   41.12    2.05   1
   1  11 -11  130.68    3.50   1
   3   9  -9    3.11    0.62   1
   1  -1  -2  183.97    2.43   1
   2  11 -10    0.67    0.50   1
   3   4  -9    1.46    0.43   1
   3   1  -5    2.73    0.44   1
   0  11 -12   -0.16    0.34   1
   4   6  -6  118.42    2.83   1
   3   1  -6    3.60    0.42   1
   2   7 -11   44.98    2.23   1
   2   8 -11  120.14    3.27   1
  -1   9 -13    5.73    0.71   1
   1   7 -12   23.01    1.14   1
   2   6 -11    2.06    0.53   1
   4   5  -6   42.90    1.82   1
   1   0  -1  221.79    2.60   1
   1   8 -12    3.94    0.63   1
   4   5  -5   10.87    0.73   1
   3   2  -3   64.75    1.74   1
   4   7  -7    0.62    0.42   1
   4   6  -7  174.81    3.56   1
   2   9 -11   31.42    1.80   1
   1   9 -12   64.65    3.02   1
   4   5  -7  134.35    3.23   1
   3   1  -4  102.77    2.11   1
  -1  10 -13    0.86    0.38   1
   1  12 -11   18.77    1.10   1
   3   7 -10    1.42    0.47   1
   4   4  -6   22.09    1.31   1
   2   2  -1  140.47    2.12   1
   3   6 -10   98.51    2.91   1
   4   4  -5  345.05    5.08   1
   4   5  -4   30.23    1.43   1
   3   8 -10   55.45    2.32   1
   2  10 -11   30.60    1.91   1
   3   5 -10  308.03    5.29   1
   4   4  -7  119.12    2.78   1
   1  10 -12   33.85    2.07   1
   4   7  -8   17.88    1.02   1
   3   3  -2    3.05    0.34   1
   4   6  -8  246.32    4.27   1
   0  12 -12  117.70    3.62   1
   3   9 -10   21.78    1.13   1
   4   8  -8    0.50    0.46   1
   4   5  -8  149.82    3.37   1
   0   8 -13    0.24    0.60   1
   4   4  -4   17.86    1.26   1
   4   3  -6   19.66    0.90   1
   3   4 -10  270.50    4.90   1
   4   3  -5  152.37    2.92   1
   0   9 -13    6.67    0.66   1
   3  10 -10   25.33    1.29   1
   4   3  -7   12.35    0.79   1
   4   4  -8   66.02    2.33   1
   2  11 -11   57.95    2.32   1
   3   0  -5   45.94    1.60   1
   1  11 -12   13.04    0.82   1
   4   7  -9   77.05    2.59   1
   4   6  -9  127.46    3.16   1
   0  10 -13    0.33    0.50   1
   3   1  -3   51.22    1.40   1
   2   7 -12    1.26    0.41   1
   4   8  -9    1.80    0.56   1
   4   3  -4   12.87    0.70   1
   2   8 -12   23.93    1.20   1
   2   0  -2  165.26    2.38   1
   4   5  -9    7.32    0.63   1
   3   7 -11   28.56    1.71   1
   4   2  -6   57.23    1.95   1
   4   3  -8    1.49    0.40   1
   2  -1  -3  314.83    3.97   1
   3   8 -11    0.44    0.49   1
   3   6 -11    0.65    0.53   1
   4   2  -5   74.73    2.07   1
   4   9  -9    6.60    0.68   1
   2   9 -12    0.39    0.54   1
   3   0  -4   32.21    1.34   1
   4   2  -7   16.66    0.88   1
   3   5 -11    1.28    0.56   1
   3   9 -11   18.49    1.02   1
   4   4  -3   44.20    1.66   1
   4   4  -9    3.31    0.49   1
   3   2  -2  261.56    3.44   1
   1  12 -12    5.61    0.72   1
   1   8 -13    1.81    0.38   1
   2  10 -12  241.26    5.01   1
   4   7 -10    5.71    0.62   1
   4   2  -8    0.35    0.56   1
   1   9 -13    5.82    0.66   1
   3  10 -11  139.68    3.68   1
   4   6 -10   69.34    2.61   1
   4   2  -4   33.50    1.53   1
   4   3  -9   69.43    2.51   1
   4   8 -10    1.04    0.56   1
   5   6  -6    3.96    0.52   1
   4   1  -6    4.97    0.55   1
   4   5 -10    1.54    0.47   1
   5   7  -7   81.61    2.57   1
   5   6  -7   40.82    1.86   1
   4   3  -3  165.18    3.11   1
   4   9 -10   32.78    1.91   1
   1  10 -13    0.54    0.37   1
   5   5  -6  808.32   10.23   1
   4   1  -7    1.53    0.49   1
   5   5  -7    6.47    0.59   1
   4   1  -5    3.77    0.47   1
   2  11 -12   76.60    3.03   1
   4   4 -10    0.34    0.51   1
   5   5  -5   51.92    1.97   1
   5   7  -8   86.08    2.68   1
   5   6  -8   23.17    1.75   1
   3  11 -11   14.69    1.04   1
   2   1  -1  201.66    2.68   1
   5   4  -6   21.62    1.01   1
   4  10 -10   19.97    1.09   1
   5   4  -7    1.61    0.38   1
   5   5  -8   76.90    2.53   1
   3   7 -12   53.84    2.58   1
   3   0  -3  118.03    2.13   1
   3   6 -12   26.77    1.97   1
   3   8 -12   98.81    3.46   1
   5   4  -5  120.60    2.88   1
   5   4  -8   65.52    2.32   1
   4   7 -11   14.27    0.90   1
   3   9 -12    4.33    0.65   1
   4   1  -4    5.27    0.48   1
   2   7 -13   19.51    1.13   1
   5   3  -6   37.08    1.68   1
   4   6 -11    3.42    0.60   1
   5   7  -9    2.27    0.53   1
   4   8 -11   77.05    3.00   1
   5   6  -9   97.02    2.95   1
   5   3  -7  118.04    2.87   1
   2   8 -13    6.66    0.67   1
   3  -1  -4   98.05    2.04   1
   3   1  -2  229.35    3.21   1
   4   2  -3  252.99    3.80   1
   5   8  -9   13.60    0.95   1
   2  12 -12   37.96    2.57   1
   5   5  -9   37.26    1.94   1
   2   9 -13  174.57    4.31   1
   4   5 -11    6.91    0.67   1
   4   9 -11   73.01    2.66   1
   5   3  -5   31.13    1.76   1
   3  10 -12    0.92    0.57   1
   5   3  -8  140.92    3.20   1
   5   4  -4   40.87    1.73   1
   4   0  -5   41.46    1.63   1
   5   4  -9   32.65    2.01   1
   2  10 -13    4.53    0.52   1
   5   2  -6  102.34    2.61   1
   5   2  -7   93.53    2.59   1
   4  10 -11   80.03    2.59   1
   5   7 -10  161.15    3.79   1
   5   6 -10  231.22    4.38   1
   5   8 -10    0.30    0.54   1
   5   3  -9    6.17    0.64   1
   5   3  -4  705.02    8.55   1
   5   2  -5  252.48    4.00   1
   3  11 -12   38.12    2.87   1
   5   2  -8   84.40    2.68   1
   5   5 -10   93.62    2.87   1
   4   3  -2   33.19    1.29   1
   2  -1  -2    6.32    0.56   1
   5   9 -10   20.17    1.12   1
   4   0  -4   87.50    2.05   1
   4   1  -3   62.26    1.66   1
   4   7 -12   19.45    1.11   1
   5   4 -10   23.91    1.20   1
   4   6 -12  126.00    3.10   1
   4   8 -12   53.82    2.43   1
   6   6  -7   19.99    1.06   1
   3   7 -13    4.51    0.48   1
   5   1  -7    8.24    0.71   1
   5   1  -6   76.14    2.43   1
   3   8 -13    4.11    0.61   1
   6   5  -7    4.88    0.53   1
   3  -1  -3   53.21    1.44   1
   4   9 -12    0.66    0.38   1
   6   7  -8   77.76    2.71   1
   6   5  -6    2.22    0.43   1
   6   6  -8   31.02    1.93   1
   3   2  -1    1.21    0.27   1
   5   2  -4    7.81    0.61   1
   3   9 -13   11.35    0.76   1
   5   7 -11    0.54    0.48   1
   5   3 -10  273.78    5.44   1
   6   5  -8   15.46    0.93   1
   5   6 -11    1.03    0.38   1
   5   1  -5   30.00    1.46   1
   6   4  -7   25.12    1.12   1
   5   8 -11  110.23    3.03   1
   6   4  -6    0.16    0.38   1
   3   0  -2  195.81    2.89   1
   5   5 -11    3.51    0.59   1
   4   2  -2   24.17    1.04   1
   6   4  -8   36.05    1.88   1
   6   6  -9   92.93    2.95   1
   6   7  -9   13.25    0.96   1
   4  10 -12    1.53    0.56   1
   5   3  -3    0.87    0.37   1
   5   9 -11    7.88    0.69   1
   6   8  -9   88.24    2.81   1
   6   5  -9  178.92    3.67   1
   6   3  -7   19.20    1.02   1
   6   4  -5    1.48    0.49   1
   5   4 -11    5.58    0.67   1
   6   3  -6   27.59    1.64   1
   2   0  -1  225.71    2.74   1
   5   0  -6   -0.12    0.31   1
   6   3  -8   73.76    2.47   1
   6   4  -9    0.35    0.43   1
   1  -1  -1    6.20    0.38   1
   5   1  -4    2.08    0.33   1
   4   0  -3    8.54    0.54   1
   5  10 -11   33.94    1.91   1
   6   7 -10    2.26    0.58   1
   6   6 -10   56.97    2.27   1
   4  -1  -4    6.66    0.52   1
   6   3  -5   36.97    1.73   1
   4  11 -12   51.05    2.80   1
   6   2  -7    4.30    0.53   1
   6   8 -10    8.27    0.72   1
   6   5 -10   24.67    1.17   1
   5   0  -5  207.87    3.49   1
   6   3  -9    4.70    0.58   1
   5   2  -3   54.93    1.72   1
   6   2  -6  234.13    4.32   1
   4   7 -13   15.34    0.92   1
   6   4  -4   24.13    1.36   1
   6   2  -8  109.94    3.00   1
   5   7 -12    8.27    0.75   1
   4   6 -13   98.44    3.06   1
   4   8 -13    1.25    0.39   1
   5   6 -12    5.10    0.63   1
   6   9 -10    3.07    0.55   1
   5   8 -12    9.16    0.75   1
   6   4 -10    2.23    0.56   1
   4   1  -2   13.99    0.65   1
   5   5 -12   53.22    2.47   1
   4   9 -13    1.86    0.41   1
   6   2  -5    3.25    0.42   1
   5   9 -12   19.16    0.95   1
   3   1  -1   52.96    1.22   1
   6   2  -9   26.76    1.22   1
   6   3  -4    0.37    0.31   1
   6   1  -7   15.46    0.91   1
   6   3 -10   15.17    1.01   1
   6   7 -11   30.05    1.87   1
   6   6 -11    0.63    0.39   1
   7   6  -7    2.62    0.52   1
   6   1  -6    7.59    0.72   1
   5   0  -4    2.92    0.45   1
   2   2   0  436.69    4.82   1
   6   1  -8   39.90    1.96   1
   7   6  -8   -0.32    0.49   1
   7   5  -7   70.77    2.53   1
   6   8 -11    0.34    0.51   1
   7   7  -8   17.60    1.02   1
   6   5 -11   42.56    2.28   1
   3  -2  -3   63.98    1.56   1
   7   5  -8    4.00    0.56   1
   5   1  -3   25.95    1.48   1
   7   5  -6   10.32    0.71   1
   5  10 -12   22.43    1.04   1
   7   4  -7   61.04    2.37   1
   5  -1  -5   31.41    1.61   1
   6   4 -11   53.37    2.25   1
   7   6  -9  168.91    3.64   1
   3  -1  -2  229.09    3.22   1
   7   4  -8   39.31    2.09   1
   6   1  -5    9.98    0.71   1
   6   9 -11   32.99    1.82   1
   7   7  -9   43.40    2.21   1
   6   2  -4  213.44    3.61   1
   7   4  -6  118.76    2.95   1
   4  -1  -3   60.37    1.61   1
   7   5  -9  108.17    3.11   1
   2  -2  -2  129.57    2.14   1
   7   3  -7   32.60    1.85   1
   6   0  -7   52.27    2.11   1
   7   4  -9   15.44    1.00   1
   7   3  -8   20.12    1.08   1
   7   3  -6   94.96    2.66   1
   6   0  -6   24.38    1.55   1
   6  10 -11    0.60    0.60   1
   7   4  -5  149.86    3.25   1
   7   6 -10   26.06    1.80   1
   5   7 -13   52.12    3.04   1
   7   7 -10   77.52    2.84   1
   6   3  -3   57.35    1.97   1
   5   8 -13   47.53    2.84   1
   4   0  -2  182.64    2.82   1
   5   2  -2   10.57    0.61   1
   5   6 -13    6.67    0.73   1
   7   5 -10  148.27    3.56   1
   6   7 -12   43.53    2.21   1
   7   3  -9    2.32    0.54   1
   7   8 -10    2.94    0.57   1
   6   6 -12   19.09    1.09   1
   4   2  -1   39.02    1.23   1
   7   2  -7    1.41    0.45   1
   6   1  -4   14.25    0.78   1
   5  -1  -4    2.29    0.34   1
   6   8 -12    7.57    0.70   1
   7   3  -5   95.48    2.57   1
   7   2  -8   20.44    1.10   1
   6   0  -5  123.79    2.75   1
   5   0  -3  476.63    6.02   1
   7   2  -6    2.50    0.45   1
   6   5 -12    0.56    0.54   1
   7   4 -10    1.01    0.58   1
   6   2  -3  189.62    3.65   1
   6   9 -12   40.05    2.75   1
   7   2  -9   47.76    2.11   1
   7   3 -10   33.97    1.42   1
   3   0  -1   19.50    0.80   1
   7   2  -5    3.77    0.48   1
   7   6 -11    7.15    0.71   1
   7   1  -7    7.84    0.63   1
   7   7 -11   -1.26    0.56   1
   7   5 -11   21.45    1.10   1
   7   1  -8    0.80    0.48   1
   7   1  -6    4.55    0.50   1
   5   1  -2  169.44    3.11   1
   2  -1  -1  206.69    2.56   1
   7   8 -11    3.01    0.62   1
   7   3  -4    3.60    0.47   1
   6   0  -4  602.72    7.82   1
   8   6  -8   87.41    2.77   1
   8   5  -7    6.49    0.66   1
   7   4 -11   38.09    2.29   1
   8   5  -8  114.52    3.08   1
   4  -2  -3  245.28    3.84   1
   6  -1  -5   11.76    0.78   1
   8   4  -7   15.09    0.96   1
   8   6  -9   61.37    2.44   1
   8   4  -8   20.40    1.08   1
   6   1  -3   20.99    1.24   1
   4   1  -1   55.56    1.48   1
   8   7  -9    5.48    0.64   1
   7   1  -5   81.73    2.39   1
   7   9 -11   73.19    3.21   1
   8   5  -9    1.68    0.59   1
   7   3 -11   39.64    2.17   1
   8   4  -6    3.33    0.54   1
   5  -1  -3   27.51    1.26   1
   7   0  -7  109.10    2.89   1
   7   2  -4  215.40    4.05   1
   5  -2  -4    5.59    0.44   1
   4  -1  -2   12.13    0.61   1
   8   4  -9   81.48    2.80   1
   8   3  -7    0.36    0.43   1
   3  -2  -2  268.79    3.69   1
   8   3  -8    0.63    0.45   1
   2   1   0  110.69    1.60   1
   6   6 -13   -0.10    0.46   1
   7   0  -6   39.18    1.94   1
   8   3  -6    0.91    0.42   1
   8   6 -10    6.62    0.62   1
   8   5 -10    0.61    0.39   1
   7   6 -12    1.95    0.55   1
   8   3  -9   27.15    1.22   1
   7   7 -12   16.99    0.93   1
   8   7 -10    1.35    0.50   1
   8   4  -5   -0.16    0.33   1
   8   2  -7   30.25    1.62   1
   3   2   0    0.71    0.17   1
   7   5 -12    6.54    0.68   1
   8   2  -8   16.14    0.98   1
   5   0  -2  353.71    4.65   1
   8   4 -10    2.12    0.44   1
   6  -1  -4   14.71    0.77   1
   7   8 -12    2.62    0.42   1
   7   0  -5  395.83    5.71   1
   7   1  -4  111.34    2.65   1
   8   8 -10   14.86    1.00   1
   6   2  -2  525.41    6.64   1
   8   2  -6   14.29    0.91   1
   6   0  -3  366.65    5.12   1
   8   3  -5   39.87    1.86   1
   7   4 -12   23.11    1.23   1
   8   2  -9   22.49    1.16   1
   8   3 -10    0.62    0.42   1
   5   2  -1  104.75    2.10   1
   7  -1  -6    6.04    0.67   1
   8   1  -7    0.80    0.44   1
   8   6 -11   33.05    2.09   1
   8   1  -8    2.87    0.56   1
   7   2  -3  275.02    4.40   1
   8   5 -11    4.16    0.64   1
   8   2  -5  221.17    4.26   1
   8   7 -11   36.23    2.06   1
   8   1  -6   16.21    0.95   1
   4   0  -1   27.54    1.04   1
   3  -1  -1   53.04    1.32   1
   5  -2  -3   55.48    1.71   1
   8   2 -10   67.52    2.70   1
   7   0  -4   14.85    0.84   1
   8   4 -11   47.18    2.28   1
   8   1  -9    2.78    0.70   1
   6   1  -2    3.09    0.35   1
   8   8 -11  151.76    3.86   1
   8   3  -4  149.73    3.16   1
   7  -1  -5   83.23    2.42   1
   9   6  -8    1.45    0.53   1
   9   5  -8    0.47    0.49   1
   9   5  -7    1.83    0.55   1
   9   4  -7   31.53    1.85   1
   9   4  -8   81.18    2.67   1
   8   1  -5    1.21    0.43   1
   8   0  -7   47.32    2.14   1
   6  -2  -4  208.13    3.83   1
   4  -2  -2   26.20    1.22   1
   7   1  -3    0.66    0.31   1
   6  -1  -3   25.02    1.56   1
   8   3 -11   22.75    1.19   1
   9   6  -9    7.09    0.66   1
   9   5  -9   96.60    2.96   1
   5  -1  -2  171.97    2.88   1
   8   0  -8   35.13    2.04   1
   5   1  -1   10.17    0.57   1
   8   9 -11    0.25    0.48   1
   9   4  -9   45.40    2.08   1
   8   2  -4   53.04    2.06   1
   8   0  -6   27.60    1.93   1
   9   4  -6  144.92    3.27   1
   9   3  -7  103.01    2.95   1
   9   3  -8   19.29    1.08   1
   3   1   0    1.02    0.23   1
   9   3  -6    6.28    0.63   1
   9   3  -9   -0.66    0.31   1
   1  -2  -1   10.85    0.51   1
   8   6 -12    1.19    0.37   1
   7  -1  -4  111.77    2.73   1
   9   5 -10   50.75    3.40   1
   9   6 -10   33.14    2.10   1
   6   0  -2   52.56    1.81   1
   9   2  -8   77.94    2.64   1
   9   2  -7    5.56    0.59   1
   8   5 -12  316.14    5.77   1
   8   0  -5   30.04    1.59   1
   9   4 -10    2.73    0.59   1
   8   1  -4  176.79    3.46   1
   9   7 -10  128.53    3.85   1
   7   0  -3  387.54    5.48   1
   7  -2  -5    5.05    0.64   1
   9   2  -6   28.77    1.86   1
   8   4 -12    5.02    0.70   1
   9   2  -9    0.50    0.41   1
   9   3  -5   27.87    1.80   1
   8  -1  -6   14.81    0.94   1
   2  -2  -1  144.30    1.98   1
   9   3 -10   79.56    2.74   1
   9   1  -7   34.64    1.95   1
   4  -1  -1   59.39    1.49   1
   9   1  -8   10.78    0.76   1
   5  -3  -3    0.86    0.27   1
   2   0   0  124.61    1.71   1
   5   0  -1  446.76    5.75   1
   6  -2  -3  189.45    3.57   1
   8   2  -3  432.12    6.19   1
   9   1  -6    2.95    0.52   1
   9   2  -5   10.21    0.81   1
   9   6 -11    4.21    0.60   1
   8   0  -4   42.17    1.66   1
   9   5 -11    4.86    0.55   1
   9   1  -9    0.93    0.49   1
   9   2 -10   58.58    2.50   1
   8  -1  -5    1.59    0.42   1
   5  -2  -2   10.07    0.60   1
   7   1  -2  110.72    2.59   1
   9   7 -11    2.20    0.58   1
   7  -2  -4  217.77    3.73   1
   9   4 -11   29.98    1.85   1
   6  -1  -2    3.94    0.47   1
   7  -1  -3    0.26    0.31   1
   9   0  -7   24.28    1.82   1
   9   0  -8    1.48    0.51   1
   9   1  -5   16.32    0.96   1
  10   5  -8    8.49    0.70   1
   4   1   0  220.40    3.28   1
   8   1  -3   20.13    1.38   1
   6   1  -1  140.53    2.89   1
   3  -2  -1    2.25    0.23   1
   4  -3  -2   29.54    1.27   1
  10   4  -8    0.06    0.49   1
   9   3 -11    6.95    0.57   1
  10   4  -7    0.77    0.52   1
   9   0  -6   25.12    1.54   1
   9   2  -4   50.60    2.03   1
  10   5  -9    7.36    0.69   1
  10   3  -8   38.98    1.98   1
  10   3  -7    7.15    0.73   1
   3   0   0    1.14    0.23   1
  10   4  -9   56.39    2.63   1
   8  -1  -4  174.75    3.43   1
  10   6  -9  128.47    4.24   1
   7   0  -2   62.26    2.00   1
   9   2 -11  131.47    3.98   1
  10   3  -6   68.88    2.45   1
   8  -2  -5  232.60    4.21   1
   9   0  -5   68.05    2.38   1
  10   3  -9    8.51    0.74   1
  10   2  -7   19.31    1.05   1
   5  -1  -1   11.22    0.62   1
  10   2  -8   20.85    1.10   1
   8   0  -3  511.61    6.68   1
   9  -1  -7   32.06    2.02   1
   6  -3  -3   57.59    1.88   1
   9   1  -4    1.11    0.41   1
  10   5 -10    3.02    0.60   1
   9  -1  -6    2.26    0.51   1
  10   2  -6    0.46    0.46   1
   7  -2  -3  282.67    4.61   1
   6   0  -1    1.64    0.41   1
  10   4 -10    3.83    0.57   1
   7  -3  -4    1.57    0.39   1
  10   6 -10    2.74    0.55   1
  10   2  -9    3.33    0.51   1
   4  -2  -1   41.23    1.23   1
   6  -2  -2  539.57    6.97   1
  10   3  -5   50.72    2.19   1
  10   1  -7    6.92    0.67   1
  10   1  -8    9.47    0.68   1
  10   7 -10    0.94    0.52   1
  10   3 -10    0.19    0.36   1
   5  -3  -2    9.45    0.60   1
   9  -1  -5   21.19    1.07   1
  10   1  -6    2.25    0.51   1
   8  -2  -4   51.62    2.06   1
   9   0  -4   66.90    2.26   1
   7  -1  -2  115.59    2.60   1
   4   0   0  618.85    7.06   1
  10   2  -5   22.28    1.16   1
   5   1   0    0.37    0.23   1
   8   1  -2   38.16    1.75   1
   8  -1  -3   22.54    1.04   1
  10   1  -9    2.35    0.53   1
  10   2 -10   56.56    3.48   1
   7   1  -1  110.71    2.80   1
  10   0  -7   65.84    2.54   1
   9  -2  -6   27.58    1.80   1
  10   0  -8    0.78    0.47   1
   9   1  -3    0.41    0.41   1
  10   1  -5   14.88    0.98   1
  10   0  -6    5.21    0.61   1
   6  -1  -1  138.26    2.69   1
   5  -2  -1   98.35    2.08   1
   9  -1  -4    0.93    0.44   1
   7  -3  -3    2.57    0.53   1
   8   0  -2   17.35    0.89   1
  10   0  -9   29.19    1.26   1
  10   1 -10    5.03    0.76   1
  10   2  -4    5.21    0.58   1
  10   3 -11   27.97    1.23   1
  11   4  -7   10.74    0.73   1
   9  -2  -5   15.35    0.95   1
  11   5  -8   13.03    0.97   1
  11   4  -8    1.93    0.54   1
  11   3  -7    1.74    0.43   1
   2  -1   0  113.45    1.61   1
   3  -1   0    0.16    0.21   1
   9   0  -3    1.21    0.39   1
  10   0  -5   75.84    2.67   1
   6  -3  -2   24.44    1.30   1
   8  -2  -3  422.02    6.35   1
   7  -2  -2   21.33    1.26   1
  11   3  -8   32.85    1.35   1
   8  -3  -4  147.04    3.53   1
   3  -3  -1  130.46    2.15   1
   7   0  -1  353.95    5.02   1
  10  -1  -7    6.24    0.66   1
   5   0   0    0.66    0.23   1
  10  -1  -8   17.96    1.06   1
  10   1  -4   22.65    1.13   1
  11   4  -9    3.87    0.49   1
   2  -3  -1   76.52    1.62   1
  11   3  -6   89.85    2.88   1
  10  -1  -6    2.28    0.51   1
  11   5  -9   30.92    3.04   1
  11   2  -7    0.56    0.39   1
  10   2 -11   -0.29    0.55   1
  11   2  -8   53.61    2.09   1
  11   3  -9    5.01    0.64   1
  11   6  -9    1.32    0.58   1
  11   2  -6    1.55    0.56   1
   8  -1  -2   40.78    1.68   1
   4  -3  -1   33.11    1.26   1
   4  -1   0  223.94    3.23   1
   9  -2  -4   48.09    2.06   1
  11   1  -7    1.09    0.49   1
  10  -1  -5   15.90    0.98   1
  11   2  -9  200.09    4.89   1
   9  -1  -3    0.99    0.43   1
  10   0  -4  322.69    5.13   1
  11   1  -8    1.95    0.51   1
   6  -2  -1  113.04    2.53   1
   9   1  -2    0.65    0.37   1
   9  -3  -5   23.09    1.75   1
  11   1  -6    3.36    0.62   1
   7  -1  -1  105.24    2.61   1
  11   2  -5  409.62    6.54   1
  11   3 -10   99.13    3.47   1
  10  -2  -6    0.21    0.49   1
   8  -3  -3   30.12    1.82   1
  11   1  -9    0.76    0.57   1
   6   0   0  535.96    6.69   1
   5  -3  -1   49.97    1.64   1
   7  -3  -2    3.12    0.52   1
  10   1  -3   59.31    2.38   1
  11   0  -7   71.80    2.57   1
   5  -1   0    1.33    0.34   1
  11   0  -8    2.79    0.57   1
  11   1  -5    6.61    0.67   1
   9   0  -2  121.19    2.87   1
  10  -1  -4   20.64    1.09   1
  11   0  -6    3.83    0.55   1
   8  -2  -2   27.60    1.55   1
  11   2 -10    0.76    0.61   1
   6  -4  -2   22.26    1.29   1
  10  -2  -5   19.96    1.09   1
   9  -3  -4  100.20    2.76   1
   8   0  -1  617.55    7.87   1
   9  -2  -3   23.51    1.85   1
  10   0  -3  340.86    5.18   1
  11   0  -9   60.00    3.30   1
  11   0  -5  176.42    3.71   1
  11  -1  -7    1.30    0.43   1
   7  -2  -1  435.27    5.88   1
  11   1 -10   62.72    2.81   1
   9  -1  -2    1.00    0.37   1
  11  -1  -8    2.95    0.61   1
  11  -1  -6    3.13    0.61   1
   6  -3  -1  202.25    3.36   1
  11   1  -4   46.66    2.24   1
   3  -2   0    0.65    0.20   1
  10  -2  -4    3.98    0.55   1
   4  -2   0    1.03    0.22   1
   6  -1   0   33.34    1.38   1
   8  -1  -1    3.87    0.54   1
  12   3  -7    6.11    0.66   1
   8  -4  -3  184.27    3.65   1
  12   4  -8    1.04    0.63   1
  10  -1  -3   59.52    2.21   1
  12   3  -8    1.72    0.40   1
  10  -3  -5   50.14    2.15   1
   7   0   0    0.84    0.52   1
   8  -3  -2  213.81    3.75   1
  12   3  -6    9.85    0.80   1
  12   2  -7    1.59    0.54   1
  11  -1  -5    6.03    0.62   1
   7  -4  -2   39.01    1.81   1
   9  -3  -3    3.03    0.59   1
   4  -4  -1   37.23    1.32   1
  11   0  -4    4.46    0.59   1
  12   2  -8   10.96    0.76   1
   3   1   1   53.38    1.22   1
  12   2  -6    3.65    0.57   1
   5  -2   0    0.20    0.28   1
  11  -2  -7    1.16    0.61   1
  12   1  -7   13.98    0.97   1
   9  -2  -2    7.99    0.73   1
  11  -2  -6   -0.54    0.46   1
   5  -4  -1  191.72    3.31   1
  12   1  -6    5.51    0.65   1
  12   1  -8   -0.20    0.50   1
  12   2  -9   16.67    0.90   1
   2  -2   0  440.19    4.94   1
  10   0  -2   47.00    2.04   1
   9   0  -1  118.80    3.24   1
   7  -3  -1   -0.44    0.41   1
  12   2  -5    2.20    0.53   1
  10  -3  -4   18.84    1.04   1
  10  -2  -3  150.03    3.28   1
  11  -1  -4   46.02    2.08   1
   8  -2  -1  119.43    2.83   1
  11  -2  -5  406.29    6.24   1
   7  -1   0    0.53    0.31   1
   6  -2   0   30.53    1.30   1
  12   0  -7    2.91    0.58   1
  12   1  -5   19.69    1.08   1
  12   0  -6   10.37    0.74   1
  12   1  -9    0.95    0.59   1
  11   0  -3  238.97    4.17   1
   6  -4  -1  213.65    3.66   1
  12   0  -8    2.50    0.59   1
   4   0   1   28.23    1.10   1
   9  -4  -3   52.10    2.04   1
  10  -1  -2    1.58    0.46   1
   8  -4  -2    4.25    0.62   1
   9  -1  -1   72.62    2.29   1
   9  -3  -2   83.96    2.68   1
  11  -3  -6   95.05    2.90   1
  12   0  -5    3.46    0.51   1
   5   0   1  454.94    5.66   1
  11  -2  -4   53.85    2.15   1
   3   0   1   18.87    0.80   1
   4  -3   0   54.54    1.47   1
  12  -1  -7   11.23    0.77   1
  10  -3  -3    9.67    0.78   1
  12  -1  -6    3.14    0.49   1
   5  -3   0    0.99    0.26   1
   2   1   1  204.36    2.55   1
  12   1  -4   10.27    0.76   1
  11  -1  -3    6.95    0.63   1
  11  -3  -5    2.79    0.57   1
  10  -4  -4   38.57    1.99   1
   8  -3  -1   22.92    1.26   1
  12   0  -9  150.20    3.74   1
   7  -2   0    0.08    0.26   1
  12  -1  -8   -0.45    0.61   1
   7  -4  -1  122.42    2.76   1
   3  -3   0    1.25    0.25   1
  10  -2  -2  261.29    4.34   1
  12  -1  -5   22.25    1.12   1
   8  -1   0   36.02    1.80   1
   9  -2  -1   30.23    1.55   1
  12   0  -4  126.33    3.22   1
   6  -3   0  118.41    2.56   1
  11  -3  -4  161.22    3.49   1
  12  -2  -6    4.94    0.74   1
  11  -2  -3   16.51    1.00   1
  12  -2  -7    2.34    0.58   1
  11   0  -2   99.43    2.99   1
   4  -1   1   56.15    1.44   1
   9  -4  -2   16.79    0.91   1
   5  -1   1   10.24    0.59   1
  12  -1  -9    0.30    0.50   1
  13   3  -7   40.12    2.23   1
   8  -5  -2  295.26    4.53   1
  13   2  -7   16.22    0.84   1
  10  -4  -3    1.38    0.48   1
  12  -1  -4   15.57    1.00   1
  12  -2  -5    1.49    0.41   1
  13   2  -6   27.42    1.25   1
   6  -5  -1  177.29    3.41   1
  11  -4  -5    1.16    0.47   1
  10  -1  -1    5.41    0.67   1
  10  -3  -2   38.80    2.01   1
   8  -2   0   77.89    2.19   1
  13   1  -7    6.15    0.65   1
   8  -4  -1   18.09    0.96   1
   7  -3   0    1.03    0.40   1
   6  -1   1  136.75    2.88   1
  11  -1  -2    1.83    0.49   1
  13   1  -6    9.59    0.74   1
   9  -3  -1   46.71    2.02   1
  12   0  -3   14.70    0.99   1
   3  -1   1   53.25    1.24   1
  11  -3  -3   18.13    1.02   1
   5  -4   0    0.54    0.32   1
  13   0  -7    7.28    0.60   1
  13   1  -5    0.67    0.52   1
  12  -3  -6    9.04    0.68   1
  13   0  -6  229.00    4.81   1
   2   0   1  228.12    2.76   1
  11  -4  -4    0.36    0.47   1
   9  -1   0    0.97    0.55   1
  12  -2  -4   34.31    2.13   1
   7  -5  -1    1.94    0.50   1
   4  -4   0    0.46    0.22   1
  10  -2  -1   55.18    2.07   1
 -10   9   0  220.37    4.13   1
  -6   9   1    4.95    0.63   1
  -6   9   2   59.76    2.25   1
  -5   8  -1  141.28    2.99   1
  -8   9  -1   23.81    1.59   1
 -11   9   1   23.77    1.19   1
  -3   7   1   60.64    1.80   1
 -11   9   2    0.85    0.55   1
  -9   9  -1   40.15    2.19   1
  -6   9   0  305.40    4.93   1
  -4   8   1   98.35    2.41   1
  -2   4  -2  298.59    3.83   1
  -7   9  -1   77.71    2.54   1
  -2   5  -1  148.31    2.41   1
 -11   9   0   -0.60    0.52   1
 -10   9  -1    6.29    0.87   1
  -1   4   1  157.65    2.46   1
  -3   7   0   -0.01    0.22   1
  -4   8   0   17.39    1.12   1
 -13   8   1   56.18    2.25   1
 -13   8   2   13.80    1.01   1
  -2   6   1   82.33    1.90   1
  -5   9   1   31.96    1.84   1
  -4   7  -2    2.49    0.35   1
 -14   7   2   56.65    2.95   1
 -14   7   1   67.06    2.97   1
  -8  10   1   65.58    2.30   1
  -1   3  -1   55.01    1.14   1
  -8  10   2    3.05    0.54   1
  -9  10   1   54.15    2.20   1
  -6   9  -1    5.78    0.66   1
  -9  10   2  144.56    4.10   1
 -12   9   1   52.38    2.39   1
 -12   9   2   80.45    2.82   1
  -3   6  -2  121.79    2.57   1
 -13   8   0    1.37    0.57   1
 -11   9  -1   22.95    1.23   1
  -7  10   1   27.62    1.64   1
  -5   9   0    0.57    0.42   1
  -8  10   0    2.74    0.49   1
  -7  10   2   23.88    1.15   1
 -10  10   1   15.47    1.01   1
  -9  10   0    0.93    0.46   1
 -13   8   3    9.19    0.81   1
  -5   8  -2   61.11    2.05   1
 -10  10   2    2.78    0.75   1
 -14   7   3    2.41    0.59   1
 -14   7   0   -0.90    0.58   1
 -12   9   0   26.22    1.27   1
  -2   6   0   29.15    1.16   1
  -1   4   0    0.13    0.16   1
  -7  10   0    0.13    0.42   1
  -4   8  -1   99.28    2.50   1
 -10  10   0   17.43    1.06   1
  -3   7  -1   59.63    1.75   1
  -6  10   1   16.96    1.52   1
 -11  10   1   96.16    2.78   1
  -8  10  -1   63.92    2.35   1
 -11  10   2   40.00    1.97   1
  -9  10  -1   61.87    2.49   1
  -5   9  -1   32.43    1.60   1
  -6  10   0   62.13    2.23   1
 -11  10   0    0.43    0.34   1
  -7  10  -1   26.90    1.82   1
 -12   9  -1   47.40    2.60   1
 -10  10  -1   14.76    1.00   1
  -4   9   1   55.43    1.95   1
  -3   8   1  314.98    4.57   1
 -13   9   1    4.48    0.68   1
  -2   5  -2   47.19    1.36   1
 -14   8   1   12.86    0.84   1
 -13   9   2    0.32    0.38   1
 -14   8   2    2.92    0.62   1
  -2   6  -1   76.63    1.93   1
  -4   9   0   11.62    0.74   1
  -3   8   0    1.18    0.37   1
  -9  11   1   27.49    1.90   1
  -8  11   1    0.60    0.44   1
  -4   8  -2  346.69    4.84   1
  -6  10  -1   16.86    1.33   1
 -12  10   1   13.26    0.85   1
  -9  11   2   42.24    2.32   1
  -5  10   1  255.78    4.37   1
 -13   9   0    1.36    0.55   1
  -8  11   2    9.14    0.92   1
 -11  10  -1   94.53    3.20   1
 -12  10   2   24.89    1.88   1
 -10  11   1    0.98    0.54   1
  -9  11   0    0.58    0.46   1
  -8  11   0  155.47    3.38   1
 -14   8   0   55.42    2.68   1
  -1   5   1  108.52    2.02   1
  -2   7   1  278.25    4.28   1
 -13   9   3   -0.12    0.54   1
  -7  11   1   82.12    2.65   1
  -3   7  -2   14.73    0.75   1
 -10  11   2   22.11    2.07   1
  -5   9  -2  145.34    2.99   1
  -5  10   0    0.60    0.33   1
 -12  10   0   50.29    2.26   1
  -1   4  -1  158.55    2.33   1
 -10  11   0   37.31    1.91   1
  -7  11   0    0.77    0.42   1
  -4   9  -1   58.75    1.95   1
  -2   7   0    2.68    0.32   1
  -3   8  -1  307.02    4.54   1
 -11  11   1   36.23    1.91   1
  -9  11  -1   32.30    1.87   1
  -8  11  -1    1.10    0.45   1
  -6  11   1  136.92    3.60   1
 -11  11   2   14.08    0.97   1
  -1   5   0    1.30    0.27   1
  -5  10  -1  252.54    4.45   1
  -6  10  -2   56.35    2.22   1
 -12  10  -1   17.42    1.05   1
 -11  11   0    0.62    0.40   1
 -10  11  -1    1.45    0.68   1
  -7  11  -1   75.95    2.67   1
  -6  11   0   40.22    1.96   1
 -13  10   1    1.42    0.43   1
  -4  10   1    7.95    0.58   1
  -3   9   1    2.56    0.50   1
  -2   6  -2   19.40    1.04   1
 -13  10   2    1.39    0.41   1
  -1   3  -2   64.90    1.23   1
  -2   7  -1  279.92    4.07   1
  -4  10   0   76.75    2.38   1
  -9  12   1   19.05    1.09   1
 -13  10   0    0.38    0.39   1
 -11  11  -1   40.38    2.08   1
  -8  12   1    0.92    0.47   1
  -4   9  -2  112.19    2.65   1
  -6  11  -1  140.56    3.20   1
  -3   9   0    1.37    0.46   1
 -12  11   1   50.12    2.24   1
  -9  12   2   40.85    1.93   1
  -8  12   2    3.60    0.64   1
  -5  11   1    3.46    0.50   1
 -12  11   2   10.38    0.76   1
  -9  12   0    0.61    0.50   1
  -8  12   0    0.76    0.46   1
 -10  12   1   57.07    2.45   1
  -3   8  -2  113.58    2.55   1
  -5  10  -2  100.63    2.75   1
  -7  12   1  253.15    4.42   1
 -13  10   3    7.65    0.70   1
 -12  11   0  367.06    6.16   1
  -5  11   0   -0.07    0.34   1
 -10  12   2   43.63    2.22   1
  -7  11  -2  251.46    4.93   1
  -2   8   1   24.63    1.25   1
 -10  12   0  183.06    4.29   1
  -1   6   1  365.42    4.70   1
  -1   5  -1  112.08    1.98   1
  -7  12   0    0.89    0.46   1
  -4  10  -1   10.98    0.80   1
  -3   9  -1    1.62    0.33   1
  -2   8   0  155.52    2.87   1
  -9  12  -1   19.90    1.08   1
  -8  12  -1    0.06    0.44   1
 -11  12   1    5.51    0.66   1
  -6  12   1  141.29    3.48   1
  -5  11  -1    4.84    0.64   1
  -1   6   0    1.12    0.25   1
  -6  11  -2   48.70    2.03   1
 -11  12   2   11.47    0.96   1
 -12  11  -1   47.30    2.53   1
 -10  12  -1   58.66    3.46   1
 -11  12   0    0.35    0.55   1
  -7  12  -1  249.08    4.51   1
  -1   4  -2   34.76    1.10   1
  -6  12   0    2.21    0.49   1
  -2   7  -2   59.78    1.91   1
 -13  11   1   20.41    0.98   1
  -4  11   1  276.69    5.11   1
  -3  10   1   35.83    1.74   1
  -2   8  -1   24.41    1.31   1
  -4  10  -2    1.95    0.52   1
  -4  11   0  530.42    6.99   1
  -6  12  -1  138.27    3.73   1
  -3  10   0    0.38    0.30   1
 -13  11   0    0.28    0.64   1
  -9  13   1   40.95    2.28   1
 -11  12  -1    5.03    0.83   1
  -8  13   1   16.81    1.03   1
 -12  12   1   12.55    0.81   1
  -5  12   1  174.28    3.54   1
  -3   9  -2   32.40    1.47   1
  -9  13   2   81.65    2.69   1
  -5  11  -2   36.55    1.88   1
  -9  13   0    0.20    0.48   1
  -8  13   0   34.89    1.93   1
  -7  12  -2  105.71    2.84   1
 -10  13   1   -0.37    0.53   1
  -1   6  -1  375.31    4.75   1
  -5  12   0    1.31    0.42   1
  -7  13   1    2.11    0.55   1
 -12  12   2   41.39    1.95   1
 -12  12   0   73.89    3.21   1
  -2   9   1  433.77    5.88   1
  -1   7   1    8.50    0.94   1
 -10  13   0  166.45    4.70   1
  -4  11  -1  267.21    4.76   1
 -10  13   2    5.50    0.86   1
  -7  13   0    0.49    0.47   1
  -3  10  -1   33.54    1.55   1
  -1   5  -2   68.37    1.60   1
  -2   9   0    9.09    0.63   1
  -9  13  -1   51.12    3.50   1
  -8  13  -1   16.23    1.01   1
   0   3   1  579.73    6.31   1
  -1   7   0    0.97    0.30   1
 -13  11  -1   29.87    2.39   1
  -5  12  -1  170.84    3.54   1
  -6  12  -2   15.30    0.98   1
  -6  13   1   14.39    0.97   1
 -11  13   1    4.16    0.64   1
  -7  13  -1    1.77    0.52   1
 -10  13  -1    0.70    0.49   1
  -2   8  -2  350.94    5.17   1
 -12  12  -1   13.26    0.87   1
  -6  13   0  218.81    4.29   1
 -11  13   0   -0.65    0.54   1
 -11  13   2   10.22    0.83   1
  -2   9  -1  430.78    5.78   1
   0   3   0    1.34    0.19   1
  -4  12   1   14.65    1.29   1
  -3  11   1   71.72    2.25   1
  -4  11  -2   10.63    1.19   1
  -4  12   0    1.23    0.40   1
  -6  13  -1   12.79    0.93   1
  -3  11   0    0.06    0.29   1
  -8  13  -2    1.72    0.51   1
  -3  10  -2   32.97    1.77   1
  -1   7  -1   10.51    0.60   1
   0   4   1    0.74    0.20   1
  -5  12  -2    2.10    0.63   1
 -11  13  -1    1.06    0.37   1
  -9  14   1   25.68    2.08   1
  -8  14   1    0.93    0.53   1
  -5  13   1   18.38    1.04   1
  -1   6  -2    0.42    0.32   1
  -7  13  -2   19.32    1.13   1
  -1   8   1  141.82    2.84   1
  -9  14   0    1.73    0.50   1
  -8  14   0   14.85    1.00   1
 -12  13   1   39.69    2.50   1
  -2  10   1    0.93    0.47   1
  -5  13   0    0.95    0.43   1
  -4  12  -1   14.12    1.24   1
  -7  14   1  180.72    3.64   1
  -3  11  -1   68.31    2.33   1
  -1   8   0   -0.04    0.35   1
  -2  10   0   48.42    1.89   1
 -10  14   1  115.44    3.66   1
 -12  13   0   43.78    2.62   1
  -7  14   0    0.87    0.44   1
   0   4   0  176.69    2.46   1
 -10  14   0    2.40    0.62   1
  -8  14  -1    1.07    0.56   1
 -10  14   2  105.81    3.57   1
  -9  14  -1   31.82    2.34   1
  -6  13  -2    0.33    0.60   1
  -2   9  -2   84.92    2.17   1
  -5  13  -1   18.85    1.09   1
  -6  14   1  206.29    4.29   1
   0   5   1  786.69    8.73   1
  -7  14  -1  177.38    3.80   1
  -6  14   0   38.20    2.28   1
  -2  10  -1    1.08    0.33   1
 -10  14  -1  115.60    3.72   1
 -11  14   1    3.45    0.50   1
  -1   8  -1  147.27    2.74   1
 -12  13  -1   35.08    2.21   1
  -4  12  -2   79.27    2.53   1
  -1   7  -2    0.79    0.25   1
 -11  14   0    0.08    0.38   1
  -3  12   1   23.88    1.48   1
  -4  13   1    0.12    0.37   1
  -3  11  -2  382.70    5.46   1
   0   5   0    0.56    0.18   1
  -3  12   0    0.93    0.37   1
  -4  13   0   28.59    1.86   1
 -11  14   2    1.37    0.59   1
  -6  14  -1  206.19    4.65   1
  -8  14  -2   14.99    1.04   1
  -5  13  -2   96.52    2.85   1
  -1   9   1    1.89    0.44   1
  -9  14  -2    5.00    0.60   1
   0   3  -1  608.07    6.65   1
  -1   9   0    1.36    0.29   1
  -7  14  -2    8.78    0.85   1
  -2  11   1   -0.48    0.51   1
  -5  14   1   17.27    2.13   1
   0   2  -1    0.56    0.15   1
  -8  15   1    0.78    0.41   1
  -5  14   0   -0.01    0.61   1
  -4  13  -1    0.05    0.39   1
  -2  11   0  102.45    2.69   1
  -3  12  -1   21.06    1.50   1
   0   4  -1    0.67    0.18   1
 -11  14  -1    7.14    0.76   1
  -8  15   0    3.92    0.61   1
   0   6   1    0.92    0.30   1
  -9  15   1   -0.54    0.54   1
  -9  15   0    0.11    0.52   1
  -2  10  -2    1.91    0.49   1
  -7  15   1    2.57    0.57   1
  -7  15   0    0.51    0.52   1
   0   6   0  483.99    5.87   1
  -6  14  -2   98.98    3.21   1
  -5  14  -1   19.58    1.06   1
  -1   8  -2   24.12    1.26   1
 -10  15   1   29.28    2.50   1
  -1   9  -1    1.90    0.42   1
  -8  15  -1    2.64    0.55   1
  -2  11  -1    1.13    0.49   1
 -10  15   0   97.36    3.35   1
   0   5  -1  789.03    8.85   1
  -9  15  -1    0.32    0.51   1
  -7  15  -1    1.62    0.58   1
  -6  15   1    0.81    0.50   1
  -4  13  -2   61.01    2.46   1
  -6  15   0   25.55    1.89   1
 -10  15   2    0.81    0.57   1
  -3  12  -2    5.66    0.72   1
  -3  13   1   30.51    1.79   1
  -1  10   1    1.70    0.45   1
  -3  13   0    0.20    0.49   1
  -4  14   1  130.37    3.29   1
   0   7   1  357.19    4.72   1
  -4  14   0   24.48    1.92   1
 -10  15  -1   27.44    1.18   1
  -1  10   0   -0.41    0.25   1
  -5  14  -2    5.16    0.73   1
  -6  15  -1    0.27    0.44   1
   0   6  -1    0.31    0.26   1
   0   7   0    0.33    0.30   1
  -8  15  -2    6.08    1.71   1
  -2  12   1    0.01    0.35   1
  -2  11  -2    9.12    0.72   1
  -2  12   0  540.62    7.36   1
  -3  13  -1   31.49    1.89   1
  -4  14  -1  122.08    3.61   1
  -9  15  -2    1.14    0.71   1
  -7  15  -2   13.71    0.94   1
  -1   9  -2  236.28    3.98   1
  -5  15   1   38.68    2.16   1
  -5  15   0   -0.77    0.44   1
  -1  10  -1    0.36    0.28   1
  -2  12  -1    0.63    0.46   1
  -8  16   1   98.93    3.62   1
  -8  16   0    1.27    0.56   1
  -7  16   1   10.83    0.92   1
  -6  15  -2    5.76    0.80   1
  -5  15  -1   34.97    2.07   1
   0   7  -1  355.52    4.70   1
  -9  16   0   -1.72    0.53   1
  -9  16   1   50.08    2.86   1
  -7  16   0   -0.22    0.48   1
   0   8   1    0.07    0.41   1
   0   4  -2  428.40    5.05   1
   0   8   0   52.01    1.70   1
  -3  13  -2    0.35    0.58   1
   0   5  -2    0.85    0.30   1
  -4  14  -2  107.73    3.43   1
  -8  16  -1   93.40    3.62   1
  -1  11   1   14.33    0.80   1
  -1  11   0    1.12    0.48   1
  -7  16  -1    7.09    0.67   1
  -6  16   1   44.36    2.28   1
  -3  14   1    5.22    0.56   1
  -9  16  -1   48.32    2.97   1
  -6  16   0  112.59    3.18   1
  -3  14   0    0.63    0.44   1
 -10  16   1   35.13    2.24   1
 -10  16   0   97.97    3.24   1
   0   3  -2    1.20    0.26   1
  -1  10  -2   71.23    2.12   1
  -4  15   1   26.44    1.95   1
  -4  15   0    5.95    0.62   1
   0   6  -2  538.11    6.49   1
  -2  12  -2   39.56    1.91   1
  -5  15  -2   18.35    1.58   1
   0   8  -1    0.54    0.34   1
  -2  13   0    4.41    0.63   1
  -1  11  -1   14.36    0.83   1
  -3  14  -1    6.33    0.72   1
  -6  16  -1   41.65    2.21   1
   0   9   1    4.15    0.39   1
  -4  15  -1   29.33    1.90   1
 -10  16  -1   29.11    2.38   1
   0   9   0    0.75    0.35   1
  -8  16  -2   19.92    1.13   1
  -2  13  -1   40.35    2.03   1
  -7  16  -2   15.80    0.98   1
   0   7  -2    0.44    0.23   1
  -5  16   1  119.30    3.80   1
  -5  16   0    0.57    0.63   1
  -9  16  -2    0.88    0.63   1
  -5  16  -1  121.86    3.09   1
  -6  16  -2   21.20    1.07   1
  -3  14  -2    1.71    0.49   1
  -1  12   0    0.19    0.37   1
   0   9  -1    4.83    0.50   1
  -1  11  -2   78.78    2.36   1
  -4  15  -2   13.31    0.94   1
  -8  17   0   65.14    3.12   1
   0   8  -2  714.17    8.50   1
  -8  17   1    1.27    0.68   1
  -7  17   0    0.96    0.54   1
  -2  13  -2   13.70    0.86   1
  -7  17   1    2.33    0.79   1
  -1  12  -1   26.30    1.51   1
  -3  15   0    0.17    0.53   1
  -9  17   0   -0.46    0.36   1
   0  10   0  907.78   10.83   1
  -9  17   1    0.60    0.58   1
  -2  14   0    4.09    0.73   1
  -8  17  -1    1.12    0.57   1
  -7  17  -1    1.80    0.56   1
  -6  17   0   21.99    1.19   1
  -4  16   0   40.59    2.25   1
  -6  17   1    3.34    0.73   1
  -5  16  -2   12.75    0.94   1
  -3  15  -1    0.95    0.47   1
  -9  17  -1    1.31    0.47   1
  -2  14  -1   11.27    0.81   1
   0  10  -1    0.31    0.38   1
  -4  16  -1  165.06    3.73   1
   0   9  -2   -0.07    0.40   1
  -6  17  -1    3.13    0.56   1
  -1  12  -2   37.64    1.91   1
  -1  13   0    1.05    0.53   1
  -5  17   0    0.22    0.39   1
  -3  15  -2    0.54    0.63   1
  -2  13  -3   26.84    1.17   1
  -7  17  -2    5.70    0.70   1
  -8  17  -2   18.24    0.99   1
   0  11   0    0.31    0.31   1
  -1  13  -1   38.91    1.73   1
  -2  14  -2  253.61    4.51   1
  -4  16  -2  140.08    3.58   1
  -5  17  -1    6.26    0.64   1
  -6  17  -2    9.16    0.86   1
   0  10  -2  188.57    3.72   1
  -9  17  -2    1.62    0.55   1
   0  11  -1   72.72    2.20   1
   1   6   1  368.46    4.71   1
  -3  16   0    0.15    0.46   1
   1   6   0   -0.03    0.21   1
   1   5   1  109.87    1.99   1
  -2  15   0   34.92    2.23   1
   1   5   0    0.54    0.18   1
   1   7   0    0.93    0.31   1
   1   7   1    9.81    0.97   1
  -3  16  -1   18.62    1.11   1
  -2  15  -1    4.76    0.68   1
  -4  17   0   15.63    1.05   1
  -1  13  -2   70.48    2.51   1
  -8  18   0    0.75    0.53   1
  -7  18   0   -0.25    0.37   1
  -5  17  -2    3.56    0.57   1
  -1  12  -3   74.20    2.41   1
  -7  18   1   58.29    3.04   1
  -3  15  -3   26.29    1.23   1
  -8  18   1   32.47    2.38   1
   1   8   0    0.20    0.23   1
  -1  14   0   -0.07    0.59   1
   0  12   0  220.61    4.00   1
   1   8   1  142.24    2.79   1
  -4  17  -1   17.85    1.05   1
   1   6  -1  369.23    4.72   1
  -7  18  -1   60.04    2.84   1
  -6  18   0   18.53    1.08   1
   1   4   0    0.15    0.14   1
  -8  18  -1   35.43    2.50   1
   1   4   1  161.69    2.34   1
   0  11  -2   -0.29    0.35   1
  -2  14  -3    0.26    0.60   1
   1   7  -1   11.96    0.64   1
  -4  16  -3   10.97    0.75   1
  -6  18   1   42.49    2.43   1
   1   5  -1  115.66    2.04   1
  -1  14  -1   67.44    2.28   1
  -3  16  -2   84.88    2.76   1
   0  12  -1    0.15    0.35   1
  -6  18  -1   48.57    2.23   1
  -2  15  -2   12.11    0.91   1
   1   8  -1  141.09    2.71   1
   0  10  -3    0.21    0.31   1
   1   9   0    0.58    0.34   1
  -5  18   0   -0.13    0.48   1
  -4  17  -2    1.28    0.63   1
  -1  13  -3   18.75    1.43   1
  -7  18  -2    1.48    0.38   1
  -5  18  -1    5.55    0.67   1
  -2  16   0   21.72    1.18   1
   1   9  -1    2.11    0.42   1
  -3  17   0   -0.68    0.51   1
   1   4  -1  164.33    2.48   1
  -1  14  -2    0.64    0.42   1
  -8  18  -2    6.78    0.70   1
   0  12  -2   83.28    2.48   1
  -6  18  -2    1.20    0.54   1
   0  13   0    0.31    0.37   1
  -2  16  -1    0.62    0.59   1
   1  10   0    0.41    0.41   1
  -3  17  -1    0.30    0.45   1
   1   7  -2    0.68    0.34   1
   1   6  -2    0.26    0.24   1
   0  11  -3   41.01    1.79   1
  -3  16  -3   78.52    2.64   1
  -1  15   0   -0.42    0.45   1
   0  13  -1   26.11    1.88   1
  -2  15  -3   32.81    2.08   1
   1   8  -2   20.48    1.21   1
  -4  18   0   12.49    0.87   1
  -1  15  -1   11.66    0.88   1
   1  10  -1    1.11    0.30   1
   1   3   0   -0.01    0.16   1
  -5  18  -2   10.44    0.92   1
   1   5  -2   69.11    1.64   1
  -4  17  -3   14.97    1.01   1
  -4  18  -1   30.61    2.17   1
  -2  16  -2    6.77    0.83   1
   1   9  -2  243.12    3.84   1
  -3  17  -2    1.43    0.69   1
   1   3   1   55.22    1.14   1
   1  11   0    0.40    0.31   1
  -7  19   0   -0.02    0.57   1
  -1  14  -3    8.18    0.81   1
   0  13  -2    0.69    0.39   1
   0  12  -3    1.21    0.58   1
  -1  15  -2   13.69    0.94   1
  -7  19   1    7.02    0.68   1
  -6  19   0   52.20    2.70   1
  -7  19  -1    4.03    0.48   1
   0  14   0   20.34    1.52   1
   1  11  -1   13.88    0.82   1
   1  10  -2   77.41    2.17   1
  -6  19  -1    0.89    0.43   1
  -4  18  -2   74.25    2.79   1
  -2  17   0   27.80    2.12   1
   0  14  -1    0.84    0.39   1
   1   3  -1   57.88    1.17   1
   1   4  -2   36.97    1.22   1
  -3  18   0    0.22    0.38   1
  -2  17  -1   16.28    2.10   1
  -5  19   0   -0.85    0.27   1
  -1  16   0   -0.29    0.43   1
  -5  18  -3   63.90    3.16   1
  -2  16  -3   17.67    1.70   1
  -3  17  -3    8.03    0.87   1
   1  12   0   -0.26    0.48   1
  -3  18  -1   11.59    0.91   1
  -5  19  -1    9.83    0.77   1
  -1  16  -1   16.52    1.52   1
   1  11  -2   76.15    2.29   1
   1  12  -1   28.44    1.55   1
   0  14  -2   14.46    0.93   1
   0  13  -3  313.50    5.48   1
   1   9  -3    7.43    0.51   1
  -6  19  -2   -0.35    0.42   1
  -1  15  -3    0.92    0.64   1
  -2  17  -2   12.03    0.94   1
  -3  18  -2    1.78    0.65   1
  -4  18  -3    0.00    0.71   1
   0  15   0    0.38    0.50   1
  -1  16  -2    3.44    0.59   1
  -4  19   0    6.85    0.85   1
  -5  19  -2   33.37    2.26   1
   1  10  -3  311.76    5.16   1
  -4  19  -1    2.08    0.61   1
   0  15  -1    0.56    0.42   1
   1  12  -2   39.81    1.99   1
   1  13   0    0.39    0.51   1
   1  13  -1   35.96    1.71   1
  -2  18   0    1.22    0.69   1
   0  14  -3   -0.07    0.61   1
   1  11  -3   77.77    2.35   1
  -1  17   0    0.02    0.54   1
  -2  17  -3   25.21    1.89   1
   0  15  -2    0.49    0.56   1
   2   8   0  157.79    2.92   1
  -2  18  -1   10.05    0.80   1
  -4  19  -2   20.34    1.13   1
  -1  17  -1    0.65    0.44   1
   2   7   0    1.93    0.37   1
   2   9   0    7.79    0.62   1
  -3  18  -3    1.48    0.59   1
  -6  19  -3    2.84    0.61   1
  -1  16  -3    4.23    0.77   1
   1  13  -2   66.92    2.33   1
   2   8  -1   25.23    1.26   1
  -3  19   0    0.30    0.70   1
   1   3  -2   72.29    1.43   1
   2   9  -1  429.82    5.80   1
  -3  19  -1   18.77    1.09   1
   2   7  -1  291.15    4.26   1
   2  10   0   51.49    1.92   1
   0  16   0   36.40    2.05   1
   1  14   0    0.31    0.51   1
  -2  18  -2  134.94    3.29   1
   2   6   0   31.42    1.32   1
  -5  19  -3    1.45    0.61   1
   1  12  -3   79.02    2.49   1
  -1  17  -2   20.56    1.12   1
   0  16  -1   -0.52    0.53   1
   1  14  -1   63.58    2.30   1
   1   2   0    0.35    0.15   1
   2  10  -1    1.08    0.32   1
  -5  20   0    0.43    0.57   1
  -5  20  -1  142.18    4.04   1
   2   6   1   80.75    1.95   1
   2   6  -1   82.58    1.86   1
   0  15  -3   18.42    2.03   1
   2  11   0  100.36    2.66   1
  -3  19  -2    4.93    0.81   1
   2   8  -2  344.80    4.98   1
  -4  19  -3  117.31    3.97   1
   2   9  -2   85.86    2.20   1
   2  11  -1    1.19    0.49   1
   0  16  -2  252.99    4.47   1
   1  14  -2    0.51    0.54   1
   1  13  -3   17.70    1.46   1
   2   7  -2   65.33    1.82   1
   2  10  -2    1.68    0.45   1
   2   5   0   49.51    1.35   1
  -4  20   0   18.90    1.01   1
  -1  18   0   -0.39    0.52   1
  -2  18  -3    8.72    0.77   1
  -5  20  -2    5.41    0.58   1
  -4  20  -1    1.11    0.55   1
  -1  17  -3    1.43    0.69   1
   1  15   0   -0.39    0.61   1
  -1  18  -1   40.71    2.33   1
  -2  19   0    1.42    0.63   1
   2  12   0  520.95    7.21   1
  -2  19  -1   33.50    2.22   1
   1  15  -1   10.25    0.89   1
   1   2   1   12.95    0.58   1
   1   2  -1   13.43    0.66   1
   2  12  -1    0.26    0.35   1
   2  11  -2    9.60    0.74   1
   2   5   1  152.84    2.65   1
   2   5  -1  156.63    2.69   1
   2   6  -2   23.79    1.12   1
   0  17   0    0.40    0.62   1
   0  17  -1   40.25    2.10   1
  -3  19  -3   -0.47    0.68   1
   0  16  -3   -0.67    0.42   1
  -1  18  -2    7.06    0.68   1
  -4  20  -2    0.56    0.53   1
   1  14  -3    7.28    0.67   1
   1  15  -2   11.50    0.85   1
  -2  19  -2   38.92    2.03   1
   2  12  -2   41.30    1.81   1
   2  13   0    5.44    0.69   1
   2   9  -3    8.18    0.66   1
   2   8  -3   39.50    1.68   1
  -3  20   0    0.81    0.62   1
  -3  20  -1   67.07    3.39   1
   0  17  -2    0.42    0.68   1
   2  13  -1   43.55    2.09   1
   2  10  -3  127.33    2.86   1
   2   7  -3  159.85    2.85   1
   1  16   0    0.09    0.73   1
   1  16  -1   18.69    1.08   1
   2  11  -3  803.13   10.23   1
   2   5  -2   51.07    1.43   1
  -3  20  -2    5.94    0.69   1
  -1  18  -3   10.64    0.83   1
   2  13  -2   14.48    0.92   1
   2   4   0   24.33    0.99   1
   1  15  -3    0.72    0.49   1
  -1  19   0    0.93    0.68   1
   2  14   0    4.32    0.73   1
  -2  19  -3    2.73    0.56   1
  -1  19  -1    2.10    0.57   1
  -4  20  -3   16.25    0.91   1
   2  14  -1   10.56    0.84   1
   1  16  -2    6.27    0.79   1
   2  12  -3   48.83    2.05   1
   0  18   0   81.36    2.76   1
   0  17  -3   24.30    1.24   1
   0  18  -1    0.29    0.54   1
   2   4  -1   62.65    1.41   1
   2   4   1   60.45    1.35   1
  -2  20   0  148.51    4.45   1
  -2  20  -1   49.67    2.63   1
  -1  19  -2   37.26    2.18   1
   2  14  -2  255.26    4.71   1
   0  18  -2    3.21    0.58   1
   2  13  -3   28.17    1.89   1
   1  17   0    0.52    0.53   1
   3   9   0    0.69    0.45   1
   1  17  -1    1.18    0.51   1
  -3  20  -3    3.36    0.69   1
   3  10   0    1.66    0.49   1
   1   2  -2  165.84    2.33   1
  -2  20  -2    2.07    0.58   1
   2  15   0   34.47    2.03   1
   3   9  -1    3.21    0.49   1
   1  16  -3    3.09    0.71   1
   3  10  -1   33.31    1.84   1
   2  15  -1    3.43    0.73   1
   3   8   0    1.22    0.40   1
   3  11   0    0.57    0.49   1
   3   8  -1  316.78    4.76   1
   3  11  -1   71.03    2.30   1
   1  17  -2   20.47    1.76   1
   2   4  -2  336.57    4.39   1
  -1  19  -3    0.40    0.54   1
   2  14  -3   -0.87    0.67   1
   2  15  -2    9.97    0.82   1
  -3  21  -1    7.82    0.74   1
   0  18  -3    0.86    0.61   1
   3   7   0    1.24    0.37   1
  -3  21   0   -0.19    0.54   1
   3  10  -2   33.92    1.65   1
   3  12   0    1.19    0.62   1
   3   9  -2   32.18    1.52   1
   3  12  -1   23.29    1.83   1
   3   7  -1   63.10    1.88   1
   3  11  -2  369.85    5.68   1
   0  19  -1   43.53    2.30   1
   3   8  -2  121.07    2.59   1
  -1  20  -1    3.77    0.62   1
  -2  20  -3    0.67    0.34   1
  -1  20   0    1.44    0.65   1
   2  16  -1    0.51    0.67   1
   3  12  -2    5.11    0.65   1
   1  17  -3    2.76    0.72   1
   3  13   0    1.25    0.64   1
   3  13  -1   32.96    1.85   1
   0  19  -2   -0.28    0.63   1
   1  18  -1   43.41    2.26   1
   2  15  -3   32.35    1.94   1
  -1  20  -2   -0.23    0.55   1
   3   7  -2   16.04    0.76   1
   3   6   0    0.21    0.25   1
   2  16  -2    5.10    0.78   1
   3   6  -1    1.00    0.35   1
   1  18  -2    6.45    0.68   1
   3  10  -3   20.05    1.43   1
   3  13  -2   -0.16    0.51   1
   2   3   0   36.51    1.04   1
   3   9  -3   12.13    0.76   1
  -2  21  -1   10.99    0.95   1
   3  11  -3   43.22    2.03   1
  -2  21   0    7.32    0.72   1
   3  14   0   -0.39    0.38   1
   2   3  -1   84.07    1.58   1
   3  14  -1    5.99    0.76   1
   3   8  -3  105.64    2.56   1
  -2  21  -2    3.15    0.47   1
   3  12  -3    1.22    0.57   1
   0  19  -3   89.56    3.17   1
   2  17  -1   19.84    1.18   1
   2  16  -3   19.47    1.12   1
   3  14  -2    1.79    0.50   1
   3   6  -2  134.86    2.56   1
  -1  20  -3    8.67    0.79   1
   1  18  -3   10.14    0.87   1
   3  13  -3    3.35    0.53   1
   2  17  -2   12.28    0.98   1
   3   7  -3    6.54    0.59   1
   2   3   1   80.96    1.67   1
   0  20  -1    0.27    0.56   1
   3  15  -1    0.31    0.46   1
   1  19  -1    0.84    0.53   1
   3   5   0   -0.14    0.20   1
   3   5  -1   58.71    1.62   1
   0  20  -2  336.80    6.19   1
   2   3  -2  210.92    3.11   1
   3  15  -2    0.46    0.58   1
  -1  21  -1   10.06    0.81   1
   3  14  -3   15.87    1.01   1
   1  19  -2   42.15    2.11   1
   2  17  -3   26.02    1.98   1
  -1  21  -2   49.97    3.03   1
   2  18  -1   14.06    1.01   1
   3   5   1   55.23    1.54   1
   4  10  -1   10.16    0.78   1
   4  10   0   76.20    2.36   1
   3   6  -3  311.30    4.70   1
   3  16  -1   18.52    1.43   1
   4  11  -1  269.60    4.50   1
   4  11   0  513.38    7.11   1
   3   5  -2    2.85    0.33   1
   1  18  -4   94.62    3.23   1
   4   9   0   10.46    0.73   1
   4   9  -1   56.72    2.05   1
   2  18  -2  136.33    3.37   1
   3  15  -3   21.40    1.89   1
   4  12  -1   15.66    0.93   1
   4  12   0    2.36    0.58   1
   0  20  -3    0.66    0.42   1
   3  16  -2   81.88    2.89   1
   1  19  -3   -0.68    0.52   1
   4  10  -2    0.91    0.39   1
   4  11  -2   12.34    0.84   1
   4   8   0   15.18    1.09   1
   4   8  -1  107.62    2.52   1
   4  12  -2   75.78    2.63   1
   4   9  -2  108.51    2.68   1
   4  13  -1   -0.13    0.43   1
   4  13   0   24.36    1.14   1
  -1  21  -3   10.49    0.83   1
   2  17  -4   35.12    2.12   1
   2  18  -3   11.56    0.91   1
   1  20  -1    1.53    0.40   1
   4  13  -2   66.16    2.51   1
   3  17  -1    0.43    0.70   1
   4   8  -2  365.71    5.28   1
   3  16  -3   85.52    2.90   1
   0  21  -1   54.77    3.00   1
   4  14  -1  126.78    3.25   1
   1  20  -2    0.20    0.58   1
   4  11  -3   36.55    2.12   1
   4   7  -1  162.83    3.09   1
   4  10  -3   18.02    0.98   1
   4   7   0    1.64    0.46   1
   2  19  -1   36.68    1.92   1
   3  17  -2    0.94    0.73   1
   3   4   0    0.34    0.20   1
   3   4  -1   16.62    0.94   1
   0  21  -2    0.78    0.40   1
   3  15  -4   38.13    1.98   1
   4  12  -3  175.80    3.72   1
   4  14  -2  114.22    3.16   1
   4   9  -3  449.18    6.60   1
   2  19  -2   36.80    2.00   1
   1  19  -4    2.40    0.76   1
   0  20  -4   12.25    0.87   1
   4  13  -3  223.93    4.26   1
   4   7  -2    1.96    0.35   1
   4  15  -1   27.62    1.99   1
   0  21  -3    1.14    0.62   1
   1  20  -3    7.17    0.74   1
   2  18  -4   11.19    0.94   1
   3  16  -4  109.32    3.08   1
   3  17  -3    7.00    0.73   1
   3  18  -1    7.93    0.77   1
   3   4   1   14.54    0.83   1
   4   8  -3   41.34    1.84   1
   3   4  -2   50.33    1.46   1
   4  15  -2   12.34    0.98   1
  -6   5  -3    9.31    0.90   1
  -4   3  -3  170.70    4.11   1
  -9   5  -3  110.96    4.56   1
  -2   2  -2  130.36    2.79   1
  -4   6  -2    4.44    0.82   1
 -11   6  -2   29.61    2.96   1
 -13   5  -1    6.08    1.31   1
 -10   7  -2   72.25    4.78   1
 -14   7   2   54.35    4.68   1
 -14   6   1    5.39    1.01   1
 -12   8   0   55.46    3.62   1
 -14   5   0    3.55    0.96   1
 -12   5  -2   31.15    2.66   1
 -10   5  -3  147.62    4.84   1
 -12   7  -1    9.12    1.27   1
  -8   6  -3  271.55    6.19   1
  -7   6  -3  113.32    4.19   1
  -3   5  -2    3.75    0.66   1
  -5   5  -3   47.58    2.52   1
  -7   6  -3  107.51    2.68   1
  -3   5  -2    3.47    0.40   1
  -8   6  -3  271.99    4.64   1
  -5   5  -3   48.87    1.62   1
 -11   8  -1   29.76    2.09   1
  -7   8  -2   13.87    1.31   1
  -8   8  -2    0.87    0.59   1
 -12   7  -1    8.09    0.80   1
 -12   5  -2   38.62    2.43   1
 -10   5  -3  151.98    3.42   1
 -13   7   0   -0.26    0.51   1
  -9   6  -3   20.27    1.04   1
  -4   4  -3   46.86    1.46   1
  -6   6  -3   27.84    1.52   1
  -9   8  -2    0.28    0.43   1
  -6   8  -2   12.84    0.80   1
  -3   1  -3   49.96    1.43   1
 -10   9  -1    6.47    0.81   1
  -2   3  -2  200.28    2.78   1
 -13   6  -1    2.12    0.76   1
 -11   7  -2    3.83    0.58   1
  -1   3  -1   55.84    1.27   1
 -10   6  -3   22.16    2.05   1
 -12   6  -2    2.16    0.47   1
  -3   2  -3   64.53    1.67   1
 -10   8  -2  130.91    3.40   1
  -4   7  -2    3.94    0.50   1
 -14   7   1   59.56    3.13   1
  -8   7  -3   32.35    1.67   1
 -11   5  -3   38.18    2.05   1
  -7   4  -4   60.60    2.28   1
  -7   7  -3   37.61    1.89   1
  -5   6  -3  510.95    6.91   1
 -14   6   0    8.13    0.69   1
 -12   8  -1   48.99    2.33   1
 -12   9   0   32.23    1.88   1
  -9   7  -3   19.13    1.06   1
  -4   5  -3   15.15    0.75   1
 -11   9  -1   22.20    1.79   1
  -3   6  -2  129.97    2.62   1
 -13   8   0    0.68    0.60   1
  -6   4  -4   26.19    1.68   1
  -8   9  -2    2.18    0.46   1
  -6   7  -3   16.67    1.36   1
 -14   8   2    2.28    0.55   1
  -3   3  -3   58.70    1.59   1
 -13   7  -1    0.06    0.53   1
 -13   5  -2    0.42    0.46   1
  -9   9  -2  113.60    3.16   1
  -8   5  -4   23.83    1.10   1
  -5   3  -4  727.45    8.68   1
  -2   4  -2  309.89    3.95   1
  -7   5  -4  377.41    5.41   1
 -11   8  -2    8.80    0.72   1
 -11   6  -3   49.10    2.11   1
 -12   7  -2   30.98    1.82   1
 -10   7  -3    0.76    0.45   1
 -14   5  -1    0.46    0.30   1
  -9   5  -4   34.83    1.89   1
 -14   7   0    0.49    0.39   1
  -8   8  -3   92.86    2.69   1
  -6   5  -4  176.68    3.31   1
 -10   9  -2   22.79    1.13   1
  -7   8  -3   23.93    1.49   1
  -5   7  -3    7.34    0.62   1
  -5   4  -4   39.82    1.78   1
 -14   8   1   14.82    0.87   1
  -9   8  -3   65.85    2.36   1
  -3   4  -3  158.16    2.71   1
 -13   6  -2   34.39    2.08   1
  -1   4  -1  161.20    2.35   1
  -4   6  -3   45.35    1.72   1
  -8   6  -4    2.32    0.45   1
 -12   9  -1   49.78    2.07   1
  -7   6  -4    0.26    0.33   1
 -11   7  -3    6.27    0.62   1
 -14   6  -1    3.78    0.49   1
  -9   6  -4   34.42    2.01   1
  -6   8  -3    7.29    0.69   1
 -13   8  -1   47.09    2.22   1
 -12   8  -2  217.03    4.46   1
 -10   8  -3   60.99    2.33   1
 -13   9   0    0.50    0.56   1
 -12   6  -3    2.51    0.61   1
 -11   9  -2   -0.36    0.37   1
  -2   5  -2   47.61    1.39   1
  -6   6  -4   15.68    0.89   1
  -5   5  -4   79.71    2.25   1
  -4   3  -4   11.64    0.66   1
 -10   6  -4    6.08    0.61   1
 -13   7  -2   17.69    1.07   1
  -8   7  -4  127.78    3.06   1
  -3   5  -3   22.33    1.17   1
 -14   8   0   50.95    2.67   1
  -8   9  -3    9.76    0.84   1
  -7   7  -4   17.15    0.95   1
  -9   7  -4  194.24    3.80   1
 -14   7  -1   62.80    2.85   1
  -7   9  -3   28.96    1.77   1
  -9   9  -3    5.57    0.61   1
 -10  10  -2    3.39    0.53   1
  -5   8  -3  111.15    2.68   1
 -11   8  -3    0.73    0.46   1
  -4   7  -3    2.36    0.48   1
 -12   7  -3   59.25    2.49   1
  -4   4  -4   20.20    1.24   1
  -5   6  -4    1.11    0.37   1
  -6   7  -4   11.33    0.77   1
 -11   6  -4   70.88    2.51   1
 -10   7  -4   12.82    0.92   1
 -10   9  -3    7.99    0.65   1
 -12  10  -1   16.42    1.03   1
 -12   9  -2   80.03    2.66   1
  -6   9  -3   31.32    1.80   1
 -13   9  -1    3.13    0.45   1
  -2   1  -3  302.44    3.97   1
 -11  10  -2   35.93    1.93   1
  -8   8  -4    1.66    0.47   1
 -13   8  -2   15.82    1.01   1
  -2   6  -2   20.12    1.35   1
  -8   5  -5    3.80    0.48   1
  -3   6  -3  287.92    4.28   1
  -2   2  -3   20.59    0.98   1
  -4   5  -4   30.89    1.39   1
 -14   6  -2   83.85    3.22   1
 -13   6  -3   71.53    2.89   1
  -9   8  -4  163.80    3.48   1
  -6   4  -5    1.12    0.36   1
  -7   8  -4  185.42    3.99   1
  -7   5  -5   15.59    0.93   1
 -12   8  -3   53.91    2.31   1
 -14   8  -1   13.64    0.81   1
 -11   9  -3    2.54    0.43   1
 -11   7  -4   38.03    2.34   1
  -8  10  -3   90.65    2.83   1
  -2   3  -3   18.03    0.93   1
  -5   7  -4  390.48    5.60   1
  -9  10  -3    0.32    0.56   1
 -10   8  -4   -0.20    0.46   1
  -4   8  -3   39.02    1.66   1
  -8   6  -5   25.23    1.55   1
  -6   5  -5  267.91    4.48   1
  -6   8  -4    3.34    0.57   1
  -3   2  -4  459.82    5.90   1
  -9   6  -5    4.97    0.60   1
  -7   6  -5    0.89    0.38   1
  -1   2  -2  155.99    2.17   1
  -1   1  -2  183.42    2.44   1
 -13   7  -3   20.67    1.11   1
  -4   6  -4  241.66    4.15   1
 -14   7  -2   61.74    2.22   1
 -10  10  -3  112.18    3.10   1
  -3   3  -4   12.54    0.65   1
  -2   4  -3   37.42    1.35   1
  -8   9  -4   26.66    1.81   1
  -5   4  -5  130.60    2.82   1
 -12  10  -2   16.23    1.83   1
 -13   9  -2    1.62    0.55   1
  -9   9  -4   24.28    1.14   1
  -3   7  -3    7.46    0.59   1
 -10   6  -5   25.28    1.77   1
 -11   8  -4    0.21    0.33   1
  -1   3  -2   71.32    1.46   1
 -13  10  -1    2.03    0.61   1
  -7   9  -4  185.72    3.86   1
  -6   6  -5  141.97    3.11   1
  -8   7  -5   30.79    1.94   1
  -3   4  -4   53.96    1.73   1
 -12   9  -3   20.57    1.12   1
 -12   7  -4   46.10    2.32   1
  -9   7  -5    1.06    0.45   1
 -10   9  -4    2.69    0.57   1
  -7   7  -5    2.26    0.45   1
  -5   8  -4  114.21    2.81   1
  -5   5  -5   55.25    1.98   1
 -11  10  -3   52.07    2.12   1
  -1   0  -2  205.18    2.60   1
 -13   8  -3   12.74    0.93   1
  -2   5  -3    9.72    0.56   1
  -4   7  -4   62.23    1.98   1
 -14   8  -2    1.71    0.38   1
  -6   9  -4    1.04    0.41   1
 -10   7  -5   26.37    1.76   1
  -1   4  -2   35.26    1.12   1
  -3   5  -4  270.15    3.97   1
  -6   7  -5    1.19    0.37   1
  -8   8  -5   64.33    2.28   1
 -11   9  -4    0.30    0.46   1
  -5   6  -5    1.31    0.38   1
  -8  10  -4   54.24    2.28   1
  -9   8  -5   13.89    0.93   1
 -12   8  -4   15.93    0.99   1
  -9  10  -4   41.67    2.05   1
  -7   8  -5    1.08    0.45   1
  -4   4  -5  366.68    5.04   1
  -7  10  -4    9.55    0.82   1
 -11   7  -5   21.17    1.06   1
 -13  10  -2    3.34    0.59   1
 -12  11  -2   18.14    1.04   1
 -10   8  -5   60.90    2.30   1
 -12  10  -3    1.52    0.55   1
 -10  10  -4    5.17    0.56   1
  -5   9  -4   40.50    1.87   1
  -2   6  -3   47.76    1.55   1
  -3   6  -4  124.72    2.64   1
 -14   7  -3    1.76    0.58   1
 -13   9  -3    0.01    0.38   1
  -1   5  -2   63.91    1.60   1
  -4   8  -4    1.86    0.39   1
  -6   8  -5    8.01    0.73   1
  -4   5  -5    8.67    0.66   1
  -5   7  -5   10.86    0.76   1
 -13   7  -4   26.16    1.63   1
 -11  11  -3   15.15    1.55   1
  -8   9  -5    2.02    0.48   1
  -8   6  -6   37.16    1.98   1
  -9   9  -5    1.21    0.47   1
 -12   9  -4   61.84    3.29   1
 -11   8  -5  113.52    3.08   1
 -11  10  -4    1.73    0.56   1
  -7   6  -6  360.72    5.37   1
  -7   9  -5   22.40    1.11   1
  -6   5  -6    3.68    0.49   1
  -4   6  -5   97.38    2.39   1
 -10   9  -5   19.33    1.06   1
  -9  11  -4   36.94    1.97   1
  -3   7  -4   -0.18    0.24   1
 -12   7  -5    2.39    0.57   1
 -13   8  -4    7.71    0.72   1
  -8   7  -6    0.67    0.47   1
  -2   7  -3  151.58    2.89   1
  -5   8  -5  329.31    5.12   1
  -9   7  -6   32.72    2.02   1
  -2   2  -4   21.74    1.14   1
  -2   3  -4   52.54    1.65   1
  -6   6  -6   -0.86    0.38   1
 -10  11  -4   80.95    2.64   1
  -6   9  -5    0.53    0.42   1
  -7   7  -6  292.20    4.74   1
 -12  11  -3   79.29    3.29   1
 -13  10  -3    8.12    0.70   1
  -2   4  -4  178.26    3.00   1
  -8  10  -5   81.76    2.72   1
 -10   7  -6    4.96    0.64   1
 -11   9  -5   33.73    1.72   1
  -3   3  -5   17.33    0.80   1
  -4   7  -5  244.12    4.05   1
  -9  10  -5   37.47    2.19   1
  -5   5  -6  825.13   10.34   1
 -12  10  -4   42.43    2.95   1
  -3   4  -5  137.26    2.73   1
 -12   8  -5   66.13    3.25   1
  -7  10  -5   20.89    1.07   1
  -8   8  -6    1.25    0.48   1
  -6   7  -6    3.67    0.50   1
  -9   8  -6   11.87    0.91   1
 -10  10  -5   21.64    1.12   1
  -2   5  -4  179.74    3.07   1
  -3   8  -4   54.96    1.85   1
  -7   8  -6    4.67    0.57   1
 -11  11  -4   36.68    2.02   1
 -13   9  -4    0.68    0.42   1
  -1   3  -3    9.08    0.48   1
  -3   5  -5   23.98    1.57   1
  -1   2  -3  153.32    2.31   1
  -5   9  -5   52.98    2.10   1
  -5   6  -6    4.16    0.47   1
 -10   8  -6    0.47    0.44   1
  -1   4  -3   34.78    1.21   1
  -6  10  -5   14.77    0.95   1
  -4   8  -5  231.36    4.27   1
  -6   8  -6   44.25    2.00   1
  -2   6  -4  429.19    5.56   1
 -11  10  -5    3.43    0.81   1
  -8   9  -6   16.33    1.02   1
  -3   6  -5   75.07    2.15   1
  -1   1  -3    3.91    0.61   1
 -12   9  -5   51.91    2.21   1
  -9   9  -6  176.53    3.68   1
  -5   7  -6   -0.37    0.34   1
  -8  11  -5    0.56    0.50   1
  -4   4  -6   21.91    1.52   1
  -9  11  -5   43.65    2.36   1
  -1   5  -3    1.51    0.28   1
  -7   9  -6   54.35    2.28   1
   0   3  -1  598.53    6.47   1
 -11   8  -6   33.18    1.85   1
  -4   5  -6   47.02    1.79   1
  -7  11  -5  182.69    4.32   1
 -10   9  -6   37.94    2.15   1
   0   2  -1    0.14    0.10   1
 -12  11  -4   -0.02    0.36   1
 -10  11  -5   11.25    0.91   1
  -5  10  -5   54.06    2.20   1
  -3   7  -5    3.73    0.44   1
  -2   7  -4    4.80    0.42   1
 -13   8  -5    0.59    0.53   1
   0   4  -1    0.10    0.18   1
  -4   6  -6  125.25    2.84   1
  -4   9  -5   22.73    1.52   1
  -6   9  -6   48.86    2.17   1
  -5   8  -6   40.42    2.00   1
  -1   6  -3  296.39    4.27   1
 -11  12  -4   33.01    1.91   1
  -8   7  -7    1.09    0.53   1
  -8  10  -6   63.03    2.54   1
  -9  10  -6   26.67    1.79   1
 -12  10  -5    0.55    0.40   1
  -7   7  -7    0.95    0.51   1
 -11   9  -6    0.42    0.51   1
  -7  10  -6    0.09    0.44   1
 -11  11  -5    2.09    0.56   1
  -6   6  -7   25.14    1.14   1
  -4   7  -6    4.58    0.50   1
  -1   0  -3  337.85    4.14   1
 -10  10  -6    2.01    0.55   1
  -9  12  -5   34.68    2.16   1
  -3   8  -5   25.34    1.62   1
  -8   8  -7   77.55    2.57   1
 -12   8  -6   10.90    0.81   1
  -2   3  -5    7.46    0.56   1
  -9   8  -7  152.93    4.01   1
  -2   4  -5  185.06    3.18   1
  -5   9  -6   39.91    2.00   1
  -6   7  -7   16.69    1.03   1
  -7   8  -7  108.93    3.00   1
  -6  10  -6    0.79    0.45   1
  -2   5  -5  704.43    8.51   1
 -10  12  -5    0.95    0.69   1
  -3   4  -6  230.51    3.78   1
  -4   8  -6    4.51    0.51   1
 -10   8  -7    0.00    0.48   1
  -8  11  -6   50.90    2.18   1
  -9  11  -6   57.80    2.51   1
  -5   6  -7   42.67    2.04   1
  -3   5  -6   83.84    2.26   1
 -11  10  -6    1.27    0.58   1
  -8   9  -7    1.59    0.51   1
  -6   8  -7   11.34    0.85   1
  -2   6  -5   93.96    2.39   1
  -7  11  -6  145.85    3.41   1
  -1   3  -4   11.57    0.60   1
  -1   4  -4  242.35    3.69   1
  -9   9  -7   13.31    0.92   1
 -12   9  -6    4.60    0.68   1
 -12  11  -5    0.83    0.38   1
  -3   9  -5   14.24    0.86   1
  -3   6  -6  101.42    2.56   1
  -7   9  -7   44.14    2.25   1
 -10  11  -6   51.40    3.00   1
  -5   7  -7   84.45    2.59   1
  -1   5  -4   94.79    2.14   1
  -5  10  -6   29.18    1.71   1
   0   4  -2  424.99    5.12   1
  -1   2  -4   61.60    1.62   1
   0   3  -2    0.61    0.22   1
 -11  12  -5    8.79    0.77   1
 -10   9  -7    4.23    0.62   1
  -6  11  -6   41.40    2.33   1
  -4   9  -6   11.19    0.79   1
  -2   7  -5    7.29    0.63   1
  -3   7  -6  272.11    4.38   1
  -6   9  -7    7.34    0.66   1
  -1   6  -4  129.43    2.61   1
   0   5  -2    0.05    0.32   1
  -4   5  -7  146.67    3.12   1
  -5   8  -7    2.01    0.47   1
  -8  10  -7   59.52    2.53   1
  -9  10  -7   34.75    1.80   1
  -8  12  -6    0.48    0.49   1
   0   2  -2  280.00    3.42   1
 -11  11  -6    0.06    0.49   1
  -4   6  -7  189.47    3.61   1
 -12  10  -6   -0.28    0.62   1
  -7  10  -7   25.53    1.19   1
  -9  12  -6   16.42    1.06   1
  -1   1  -4   85.74    1.93   1
  -7  12  -6   48.42    2.19   1
  -2   8  -5   92.01    2.59   1
  -3   8  -6    0.61    0.35   1
  -1   7  -4   89.98    2.27   1
 -11   9  -7   21.23    1.03   1
 -10  10  -7   40.73    2.10   1
  -5  11  -6    0.92    0.45   1
  -4   7  -7   -0.15    0.38   1
  -4  10  -6   69.39    2.50   1
  -5   9  -7   33.24    1.86   1
  -6  10  -7   15.37    0.96   1
 -10  12  -6    0.47    0.53   1
  -8   8  -8    0.00    0.51   1
  -8  11  -7    0.48    0.48   1
  -2   4  -6   43.81    1.66   1
  -6   7  -8   78.61    2.61   1
  -7   8  -8   36.74    2.01   1
  -9  11  -7   51.03    3.47   1
  -4   8  -7   39.90    2.06   1
  -2   5  -6    0.01    0.29   1
  -7  11  -7   44.11    2.08   1
  -2   3  -6    3.28    0.38   1
  -3   9  -6   66.59    2.25   1
 -11  13  -5    3.82    0.60   1
  -2   6  -6    1.35    0.35   1
 -11  10  -7   15.59    0.96   1
   0   4  -3   -0.29    0.23   1
   0   1  -2    0.72    0.17   1
  -8   9  -8    1.28    0.42   1
  -3   5  -7  530.33    7.17   1
  -1   4  -5    5.93    0.50   1
  -6   8  -8   25.59    1.22   1
  -5  10  -7    0.88    0.44   1
 -11  12  -6    9.55    0.87   1
   0   5  -3  161.48    2.62   1
 -10  11  -7    7.47    0.66   1
  -1   5  -5   76.29    1.95   1
  -7   9  -8  237.19    4.31   1
   0   3  -3    3.00    0.31   1
  -9   9  -8  135.06    4.08   1
  -6  11  -7    7.96    0.68   1
  -3   6  -7    0.88    0.36   1
  -1   3  -5  117.20    2.44   1
  -9  13  -6   50.09    2.87   1
  -4   9  -7    0.35    0.42   1
  -2   7  -6    3.37    0.42   1
  -5   7  -8   88.18    2.74   1
  -1   6  -5    0.66    0.28   1
   0   6  -3    0.52    0.33   1
  -3   7  -7   45.13    2.06   1
  -6   9  -8    0.23    0.43   1
  -8  12  -7   15.23    0.98   1
  -1   2  -5  150.32    2.77   1
  -3  10  -6  330.32    5.37   1
 -10   9  -8    1.60    0.67   1
  -8  10  -8   38.89    1.91   1
  -7  12  -7   48.05    2.09   1
  -5   8  -8    0.72    0.45   1
   0   2  -3    0.15    0.17   1
 -10  13  -6   73.92    2.87   1
  -9  12  -7   23.77    1.19   1
  -1   7  -5    0.19    0.26   1
  -2   8  -6   20.50    0.98   1
 -11  11  -7    2.00    0.39   1
  -7  10  -8   61.62    2.55   1
  -9  10  -8    8.88    0.73   1
  -5  11  -7    0.82    0.46   1
  -3   8  -7    9.98    0.79   1
  -4  10  -7   22.26    1.08   1
  -4   6  -8  255.96    4.31   1
  -6  12  -7   18.15    1.11   1
 -10  12  -7   16.88    0.89   1
  -6  10  -8    0.87    0.50   1
  -5   9  -8    4.16    0.56   1
  -4   7  -8   17.92    1.04   1
  -1   8  -5  135.52    2.89   1
 -10  10  -8    6.18    0.59   1
  -2   9  -6    0.58    0.40   1
  -8  11  -8    9.06    0.74   1
  -3   9  -7    1.66    0.43   1
   0   5  -4   -0.21    0.35   1
   0   4  -4  886.37   10.12   1
  -7  11  -8  118.72    2.94   1
  -4   8  -8    0.75    0.42   1
  -9  11  -8  192.80    4.36   1
   0   6  -4  738.87    8.87   1
  -2   5  -7   16.87    0.90   1
  -2   4  -7   85.75    2.43   1
   0   1  -3  383.11    4.55   1
   0   3  -4    0.63    0.22   1
  -8  13  -7    1.98    0.64   1
  -4  11  -7    1.46    0.50   1
  -2   6  -7   32.66    1.90   1
  -7   8  -9    5.33    0.63   1
  -5  10  -8   70.35    2.46   1
  -5  12  -7   27.10    1.23   1
  -1   5  -6   81.15    2.24   1
  -7  13  -7    2.53    0.51   1
  -1   4  -6   52.94    1.79   1
  -6  11  -8   36.90    2.13   1
  -9  13  -7   16.44    0.94   1
  -1   6  -6  148.90    3.08   1
  -2   7  -7  123.24    3.04   1
  -4   9  -8    1.92    0.47   1
  -6   8  -9   92.89    2.95   1
  -1   3  -6  142.61    2.78   1
 -10  11  -8   11.89    0.84   1
  -3  10  -7    4.46    0.61   1
  -8   9  -9    7.76    0.74   1
  -3   6  -8    4.11    0.53   1
  -7   9  -9   20.48    1.05   1
  -1   7  -6   30.65    1.67   1
   0   2  -4    1.12    0.23   1
  -3   7  -8   43.44    1.91   1
  -5   7  -9    2.30    0.55   1
  -2   8  -7   21.68    1.65   1
   0   0  -2    2.16    0.19   1
  -8  12  -8    6.86    0.70   1
  -9   9  -9    3.67    0.89   1
  -7  12  -8    0.96    0.55   1
  -5  11  -8   51.14    2.38   1
  -6   9  -9    1.95    0.58   1
  -9  12  -8   12.59    0.81   1
  -4  10  -8    5.05    0.58   1
  -5   8  -9   14.61    0.96   1
  -1   8  -6    2.30    0.42   1
  -3   8  -8  369.74    5.48   1
  -8  10  -9    5.98    0.66   1
  -6  12  -8    0.29    0.37   1
  -7  10  -9    7.96    0.85   1
   0   5  -5    2.91    0.33   1
  -3  11  -7   22.15    1.10   1
  -2   9  -7    0.75    0.39   1
   0   4  -5    0.56    0.26   1
   0   6  -5   -0.05    0.25   1
  -9  10  -9   18.86    1.00   1
  -6  10  -9   -0.08    0.33   1
  -5   9  -9    9.83    0.74   1
  -3   9  -8   81.88    2.46   1
  -4   7  -9   80.78    2.61   1
  -1   9  -6   20.87    1.54   1
   0   7  -5  646.64    8.31   1
   0   3  -5  774.06    9.15   1
   0   1  -4    0.73    0.25   1
  -4  11  -8    1.24    0.51   1
  -5  12  -8   16.88    1.04   1
  -8  11  -9    9.25    0.77   1
  -7  11  -9   29.82    1.93   1
  -4   8  -9    0.75    0.44   1
   0   0  -3    0.60    0.22   1
  -2  10  -7   23.60    1.68   1
  -8  13  -8    1.32    0.65   1
  -7  13  -8  129.59    4.16   1
  -1   5  -7   49.38    1.85   1
  -2   5  -8   13.05    0.86   1
  -2   6  -8   78.32    2.51   1
  -1   6  -7  480.65    6.39   1
  -5  10  -9   27.65    1.25   1
  -1   4  -7   19.99    1.40   1
  -3  10  -8   18.37    1.05   1
  -6  11  -9   26.93    1.20   1
  -2   7  -8   10.30    0.79   1
  -1   7  -7  170.35    3.46   1
  -9  13  -8   57.00    2.75   1
  -9  11  -9    8.48    0.77   1
  -6  13  -8    3.15    0.53   1
   0   2  -5    0.57    0.32   1
  -4   9  -9    6.76    0.63   1
  -2   8  -8   25.70    1.61   1
   1   4  -2   34.45    1.10   1
  -1   8  -7   26.44    1.51   1
  -4  12  -8   20.88    1.13   1
   0   5  -6    0.00    0.26   1
  -3   7  -9   67.34    2.55   1
  -5  11  -9   45.40    2.05   1
   1   5  -3    1.14    0.37   1
   0   6  -6    0.83    0.34   1
  -7  12  -9    9.31    0.76   1
  -8  12  -9    5.09    0.55   1
  -4  10  -9  173.50    3.73   1
   0   4  -6    1.79    0.34   1
  -3  11  -8   48.22    2.16   1
  -2   9  -8    8.66    0.80   1
  -7   9 -10   27.80    2.05   1
   0   7  -6    0.45    0.32   1
   1   4  -3   33.23    1.15   1
  -3   8  -9    2.07    0.50   1
  -1   9  -7   64.73    2.31   1
  -6  12  -9    0.55    0.52   1
  -6   9 -10    3.86    0.58   1
   1   3  -2   70.02    1.37   1
   0   3  -6    0.90    0.30   1
  -5   8 -10   -0.81    0.49   1
   0   8  -6  309.84    4.96   1
  -8  14  -8   11.80    0.77   1
  -3   9  -9    4.12    0.55   1
   1   5  -4   91.49    2.00   1
   1   6  -4  125.32    2.66   1
  -7  10 -10  113.96    4.02   1
  -2  10  -8   35.31    1.95   1
   1   3  -3    8.94    0.47   1
  -4  11  -9    9.76    0.87   1
  -5  12  -9    1.14    0.53   1
  -5   9 -10   16.94    0.98   1
  -8  10 -10   25.98    2.30   1
  -6  10 -10   44.57    2.22   1
   1   4  -4  244.94    3.55   1
  -1  10  -7    2.76    0.49   1
  -1   6  -8    9.12    0.74   1
  -1   5  -8    4.61    0.63   1
  -1   7  -8    0.24    0.41   1
   0   2  -6   88.35    2.22   1
  -3  10  -9    3.70    0.53   1
  -7  13  -9    1.33    0.42   1
  -2   6  -9   12.63    0.87   1
  -8  13  -9   11.38    0.81   1
  -4   8 -10    1.62    0.54   1
  -2   7  -9    1.68    0.44   1
  -5  10 -10    1.28    0.50   1
  -1   8  -8    1.96    0.44   1
   1   3  -1   53.76    1.12   1
   0   6  -7    0.44    0.32   1
  -6  13  -9    1.74    0.38   1
  -7  11 -10   37.58    2.58   1
   1   3  -4   11.32    0.57   1
   0   5  -7  352.00    5.07   1
  -2  11  -8    0.61    0.48   1
  -2   8  -9   28.12    1.62   1
   0   7  -7   13.20    0.83   1
  -6  11 -10   43.08    2.17   1
  -8  11 -10    1.25    0.61   1
  -4   9 -10   35.64    2.07   1
   1   6  -5    0.85    0.30   1
  -4  12  -9   66.22    2.49   1
   1   5  -5   72.62    1.91   1
   0   4  -7    0.51    0.34   1
   1   2  -3  151.46    2.30   1
   1   7  -5    2.00    0.44   1
   1   2  -2  155.23    2.19   1
  -1   9  -8   64.99    2.38   1
  -3  11  -9    1.46    0.51   1
   1   4  -5    6.94    0.53   1
   0   8  -7    0.00    0.33   1
  -2   9  -9    3.22    0.53   1
  -5  13  -9   29.13    1.97   1
  -5  11 -10   34.50    1.87   1
  -3   7 -10    1.11    0.51   1
  -4  10 -10   13.80    0.88   1
   0   3  -7    2.14    0.36   1
  -3   8 -10   55.45    2.33   1
  -7  12 -10   65.96    2.84   1
   0   9  -7   11.29    0.84   1
   1   2  -4   59.27    1.67   1
  -1  10  -8  115.13    3.02   1
   1   3  -5  117.38    2.35   1
  -2  10  -9   39.74    1.99   1
  -6  12 -10   15.01    0.96   1
  -3   9 -10   20.44    1.08   1
  -7  14  -9    4.54    0.62   1
  -3  12  -9   13.09    0.94   1
  -4  13  -9   26.19    1.19   1
   1   6  -6  147.20    3.05   1
  -4  11 -10    4.45    0.59   1
   1   5  -6   84.69    2.35   1
  -6  14  -9    5.52    0.67   1
   1   7  -6   30.57    1.69   1
  -1   6  -9   63.62    2.32   1
  -1   7  -9   16.37    0.96   1
  -5  12 -10    3.31    0.61   1
   0   6  -8  219.71    3.98   1
   1   4  -6   53.16    1.77   1
  -3  10 -10   22.92    1.15   1
   0   7  -8    0.31    0.40   1
  -1   8  -9   98.32    2.94   1
  -2  11  -9    5.08    0.64   1
   1   8  -6    2.81    0.42   1
   0   5  -8   -0.01    0.36   1
   1   2  -5  141.05    2.57   1
  -5   9 -11   10.71    0.92   1
  -2   7 -10   -0.19    0.43   1
   0   8  -8  107.74    2.97   1
   1   1  -3    6.08    0.37   1
   1   2  -1   12.89    0.60   1
   0   4  -8    4.74    0.51   1
  -1   9  -9   95.42    2.89   1
  -7  10 -11   94.58    2.95   1
  -6  10 -11    0.35    0.63   1
  -2   8 -10    0.95    0.45   1
   1   3  -6  138.87    2.80   1
  -6  13 -10    3.38    0.48   1
  -4  12 -10   13.70    1.00   1
   1   1  -4   86.46    1.78   1
  -3  11 -10   30.70    1.92   1
   0   9  -8    0.69    0.42   1
  -5  10 -11   36.40    2.74   1
  -2   9 -10   14.27    0.95   1
  -4   9 -11   79.85    2.71   1
   1   6  -7  465.73    6.27   1
  -2  12  -9  105.29    2.84   1
   1   1  -2  189.54    2.41   1
  -1  10  -9    0.98    0.47   1
   1   7  -7  170.28    3.48   1
   1   5  -7   49.42    1.80   1
  -5  13 -10    2.66    0.46   1
  -6  11 -11    2.48    0.49   1
   1   8  -7   28.62    1.82   1
   0  10  -8    0.92    0.49   1
  -2  10 -10   69.96    2.57   1
   1   2  -6  456.04    5.98   1
   1   4  -7   17.32    0.86   1
  -4  10 -11   80.97    2.71   1
   1   1  -5   30.33    1.32   1
  -5  11 -11  116.51    3.66   1
  -3   8 -11    1.71    0.67   1
   2   6  -4  406.56    5.64   1
  -3  12 -10    6.73    0.68   1
  -1  11  -9  116.70    3.04   1
   1   9  -7   63.11    2.35   1
   2   5  -4  172.36    2.98   1
   2   5  -3    8.72    0.53   1
  -4  13 -10   10.28    0.76   1
   0   6  -9    0.56    0.38   1
   0   7  -9   99.82    2.93   1
  -3   9 -11   17.57    0.99   1
  -1   6 -10  214.95    4.36   1
  -1   7 -10  118.51    3.03   1
   1   3  -7   30.58    1.63   1
   0   5  -9   24.12    1.57   1
   0   8  -9    1.40    0.45   1
  -2  11 -10    0.01    0.39   1
   2   6  -5   87.48    2.16   1
  -1   8 -10   34.46    1.93   1
  -6  12 -11    7.22    0.58   1
  -4  11 -11   32.74    2.00   1
   2   4  -4  180.14    2.97   1
   2   5  -5  688.94    8.61   1
   2   4  -3   37.55    1.29   1
  -3  10 -11  141.78    3.23   1
   0   9  -9    1.93    0.48   1
   1   6  -8   10.24    0.77   1
  -1   9 -10   15.03    0.98   1
  -5  12 -11   37.75    2.71   1
   1   7  -8   -0.07    0.40   1
  -5  14 -10    6.54    0.68   1
   1   5  -8    4.33    0.49   1
   2   4  -5  180.19    3.14   1
   1   8  -8    1.81    0.44   1
   1   0  -4   96.01    1.82   1
  -3  13 -10    1.54    0.67   1
  -2   8 -11  121.11    3.01   1
   2   6  -6    2.00    0.37   1
  -2  12 -10    1.62    0.42   1
   1   0  -3  335.44    4.05   1
   2   7  -6    2.79    0.41   1
  -1  10 -10   20.98    1.11   1
   0  10  -9    0.46    0.45   1
   1   4  -8  198.65    3.74   1
   2   3  -4   52.40    1.59   1
   2   5  -6    0.76    0.34   1
  -4  12 -11    4.35    0.63   1
  -3  11 -11   11.74    0.82   1
   1   9  -8   65.65    2.48   1
  -2   9 -11   31.35    2.20   1
   2   4  -2  302.92    4.12   1
   2   3  -3   18.30    1.08   1
  -4  14 -10    1.46    0.59   1
   2   3  -5    7.97    0.57   1
   2   4  -6   43.73    1.67   1
  -2  10 -11   31.41    1.87   1
  -1  11 -10    7.05    0.62   1
   0  11  -9  153.48    3.84   1
   0   7 -10   -0.17    0.41   1
   0   6 -10   15.77    0.99   1
   2   6  -7   34.60    1.74   1
   2   7  -7  131.78    3.05   1
   0   8 -10   72.11    2.60   1
  -5  10 -12   20.28    0.98   1
  -3  12 -11   14.98    1.02   1
   1   7  -9   13.25    0.92   1
   2   5  -7   15.79    0.86   1
   1   1  -1    6.46    0.38   1
   1   6  -9   61.87    2.29   1
   2   3  -6    4.19    0.40   1
  -2  13 -10    5.48    0.82   1
   2   8  -7   23.58    1.69   1
   2   2  -4   21.69    1.08   1
  -1   7 -11    5.74    0.62   1
   0   9 -10    0.86    0.47   1
   1   8  -9   91.66    2.84   1
  -2  11 -11   48.59    2.33   1
  -1   8 -11    4.29    0.61   1
   1   5  -9    7.89    0.64   1
  -4  13 -11   87.59    3.18   1
   2   2  -5  436.89    5.61   1
   2   3  -2  195.79    2.92   1
  -4  10 -12    1.36    0.65   1
   2   4  -7   85.99    2.38   1
  -1  12 -10   83.68    2.93   1
   1   9  -9  102.89    2.93   1
  -1   9 -11   69.74    2.66   1
   2   2  -3   20.36    0.94   1
   1   0  -2  217.65    2.71   1
  -3   9 -12    4.99    0.73   1
   0  10 -10   19.14    1.06   1
  -1  10 -11   77.68    2.61   1
   2   2  -6  118.39    2.55   1
   2   7  -8    7.31    0.63   1
   2   6  -8   80.04    2.52   1
  -4  11 -12   48.43    2.78   1
   1  10  -9   -0.27    0.44   1
   2   3  -7  140.82    2.97   1
  -3  10 -12    0.93    0.53   1
  -2  12 -11   24.42    1.18   1
  -3  13 -11   14.00    0.89   1
   2   8  -8   27.21    1.70   1
   2   5  -8   13.04    0.83   1
   0  11 -10    0.69    0.51   1
   2   9  -8    9.59    0.86   1
  -1  11 -11  131.55    3.81   1
   2   4  -8   55.23    2.15   1
  -2   9 -12    0.21    0.50   1
   2   1  -4    0.53    0.23   1
   2   1  -5   47.23    1.59   1
  -3  11 -12   46.87    2.93   1
   1   7 -10  119.46    3.09   1
   3   6  -5   69.54    2.29   1
   0   7 -11    4.87    0.64   1
   1   6 -10  214.59    4.01   1
   1   8 -10   33.09    1.98   1
   0   8 -11   -0.04    0.53   1
   2   2  -7  119.19    2.68   1
   3   5  -5   16.43    1.04   1
   1   5 -10  238.56    4.49   1
   3   5  -4  263.96    3.93   1
  -2  10 -12  245.13    4.98   1
   3   7  -6  254.47    4.52   1
   2   2  -2  131.27    2.14   1
   0   9 -11    1.48    0.41   1
   1   9 -10   14.31    0.97   1
   3   6  -6   87.06    2.59   1
   0  12 -10    5.41    0.73   1
   2   1  -6    9.77    0.63   1
   2   3  -8   10.97    0.80   1
  -2  13 -11   14.54    0.93   1
   2   7  -9    1.98    0.49   1
   3   5  -6   77.48    2.27   1
   2   6  -9   11.88    0.85   1
   2   1  -3  314.57    3.98   1
   3   4  -5  135.99    2.83   1
   2   8  -9   27.55    1.81   1
   1  -1  -3    5.36    0.35   1
  -1  12 -11   17.62    1.11   1
   0  10 -11    0.16    0.48   1
  -3  14 -11   14.43    0.85   1
   1  10 -10   22.54    1.13   1
   3   4  -4   53.89    1.69   1
  -3  12 -12   65.52    2.93   1
  -1   8 -12    3.65    0.58   1
   2   5  -9  245.82    4.24   1
  -2  11 -12   70.26    3.16   1
  -1   9 -12   66.11    2.55   1
   2   9  -9    2.69    0.54   1
   3   7  -7   39.99    1.97   1
   3   8  -7    9.82    0.79   1
   3   6  -7    0.87    0.39   1
   3   4  -6  210.65    3.68   1
   0  12  -9   -0.01    0.45   1
   3   5  -4  279.62    4.03   1
   2   5  -2   50.39    1.47   1
  -1  13  -9   36.02    2.18   1
   1   6  -1  415.73    5.24   1
   2  10  -7   25.67    1.57   1
   1  11  -9  126.47    3.33   1
   2  10  -6   33.74    1.93   1
   2   9  -4    0.19    0.38   1
   3   7  -5    6.39    0.62   1
  -3  12 -12   71.90    2.74   1
   2  10  -8   38.78    2.07   1
  -3  13 -11   12.11    0.84   1
   3   6  -4  125.78    2.67   1
   2   8  -3   41.92    1.75   1
   0  13  -7    3.47    0.60   1
  -1  12 -11   19.99    1.12   1
   2  10  -5   20.68    1.50   1
   0  11 -11   21.09    1.09   1
   2   6  -2   23.00    1.14   1
   0  12 -10    3.57    0.59   1
   3   8  -6    0.18    0.38   1
   1  12  -7    1.03    0.46   1
   0  13  -8    0.04    0.51   1
   1  12  -6  250.10    4.37   1
  -1  13 -10    3.18    0.78   1
   1  12  -8   29.73    1.97   1
  -1  11 -12   11.24    0.87   1
   2  10  -9   32.95    2.19   1
   1  11 -10   11.54    0.90   1
   3   8  -5   27.34    1.51   1
  -2  13 -11   13.80    0.85   1
   3   4  -3  153.50    2.71   1
   3   7  -4    1.41    0.33   1
  -2  12 -12   42.89    2.04   1
   1   7  -1   11.39    0.59   1
   0  13  -9    3.38    0.48   1
   1  12  -5    0.26    0.53   1
   2  11  -7    5.40    0.58   1
   2  11  -6    1.72    0.44   1
   1  12  -9   15.54    1.00   1
   2  10  -4    1.82    0.42   1
   3   9  -7    1.58    0.48   1
   3   5  -3   24.18    1.36   1
   2   7  -2   67.16    1.84   1
   2  11  -8   -0.29    0.42   1
   3   9  -6   68.30    2.30   1
   2   9  -3    7.07    0.64   1
  -1  14  -9  128.98    3.65   1
  -2  14 -10    5.58    0.54   1
   2  11  -5    0.91    0.39   1
   3   6  -3  305.95    4.45   1
   3   8  -4   58.13    1.98   1
   0  12 -11    0.20    0.70   1
   3   9  -5   11.11    0.78   1
   2  11  -9    5.10    0.65   1
  -1  13 -11  104.13    3.26   1
   0  13 -10   -0.33    0.52   1
   1  13  -7    3.01    0.54   1
   1  12 -10   85.02    2.71   1
   1  13  -6   30.02    1.82   1
   1  13  -8   40.89    2.30   1
   0  14  -8   17.80    1.10   1
  -1  12 -12    2.49    0.47   1
   3  10  -7    9.02    0.80   1
   2   8  -2  364.83    5.09   1
   2  12  -7   24.09    1.89   1
   3  10  -6  343.94    5.32   1
  -1  14 -10   46.32    2.67   1
   3   7  -3    5.61    0.53   1
   3  10  -8   19.48    1.10   1
   2  12  -6    1.33    0.43   1
   2  12  -8   12.55    0.93   1
   2  11  -4   11.91    0.85   1
   1  13  -9   34.54    1.95   1
   2  10  -3  129.28    2.95   1
   0  14  -9    1.55    0.65   1
   3   9  -4  209.61    4.03   1
   3  10  -5   14.12    0.87   1
  -2  14 -11   51.54    2.86   1
   2   4  -1   62.81    1.42   1
   2  12  -5   54.01    2.43   1
   2  12  -9  109.80    3.28   1
   2   5  -1  155.88    2.56   1
   2   3  -1   82.57    1.57   1
   3   8  -3  106.01    2.42   1
   4   7  -5  247.15    4.15   1
   0  13 -11   23.70    1.71   1
   3  11  -7   20.09    1.08   1
   2   9  -2   89.05    2.40   1
   3  11  -6   26.10    1.63   1
  -1  15  -9    4.73    0.71   1
   1  12 -11   19.37    1.10   1
   1  13 -10    3.16    0.62   1
   1  14  -7    0.04    0.47   1
   3  11  -8   47.01    2.29   1
  -2  15 -10   11.79    0.81   1
   0  14 -10  105.00    3.47   1
   2   6  -1   85.07    1.99   1
   1  14  -8  149.53    3.35   1
   0  12 -12  115.48    3.73   1
   3   4  -2   47.83    1.51   1
  -1  14 -11    3.37    0.58   1
   2  13  -7   32.79    1.94   1
   3  10  -4   88.45    2.40   1
   3   5  -2    3.31    0.34   1
   4   6  -4  251.72    3.93   1
   4   8  -5  240.27    4.24   1
   2  13  -8    5.47    0.61   1
   2  12  -4   30.70    1.81   1
   2  13  -6   12.19    0.91   1
   3  11  -5   53.47    2.21   1
   3   3  -2    2.13    0.27   1
   2  12 -10    1.43    0.41   1
   1   4   0    0.82    0.19   1
   1   5   0    0.29    0.22   1
   3   6  -2  134.99    2.59   1
   3  11  -9    2.68    0.53   1
   2   2  -1  140.69    2.05   1
   4   9  -6   11.62    0.86   1
   3   9  -3   10.51    0.71   1
   1  14  -9  131.89    3.27   1
   4   7  -4   69.88    2.04   1
   2   7  -1  305.15    4.41   1
   2  13  -9   14.18    0.96   1
  -1  15 -10   72.78    3.42   1
   3  12  -7   11.42    0.87   1
   2  13  -5   26.12    1.77   1
   0  15  -9    5.75    0.74   1
   1   3   0    0.56    0.18   1
   3   7  -2   13.51    0.71   1
   4   9  -5   23.10    1.06   1
   3  12  -6   64.00    2.61   1
   3  12  -8   94.28    2.84   1
   3   2  -2  269.33    3.72   1
   4  10  -7   22.32    1.48   1
   4   8  -4    4.16    0.57   1
   3  11  -4    9.48    0.76   1
   4  10  -6   75.30    2.65   1
   1  13 -11  112.99    3.89   1
   0  14 -11    0.50    0.39   1
   1  14 -10   41.01    2.18   1
   2   8  -1   23.62    1.27   1
   3  10  -3   22.63    1.41   1
   3  12  -5   47.98    2.08   1
   3  12  -9   12.35    0.92   1
   2  14  -7   98.67    3.07   1
   4   5  -3   13.68    0.71   1
   3   8  -2  121.19    2.76   1
   1  15  -8    7.77    0.79   1
   2  14  -8   65.26    2.65   1
   2  13 -10    3.72    0.62   1
   4   6  -3   47.42    1.61   1
   4  10  -5   17.61    0.97   1
   2  14  -6    0.85    0.52   1
   0  15 -10    0.51    0.40   1
   4   9  -4   61.43    2.16   1
   3  13  -7   20.79    1.12   1
   4   7  -3    1.32    0.32   1
   4  11  -7    0.65    0.47   1
   2  14  -9   21.77    1.12   1
   3  13  -8   45.25    2.57   1
   4  11  -6   66.74    2.54   1
   3  13  -6   -0.19    0.42   1
   1  15  -9    5.74    0.70   1
   4  11  -8    0.24    0.51   1
   1   2   0    0.20    0.18   1
   3   9  -2   33.50    1.55   1
   3  12  -4   49.15    2.05   1
   3  11  -3   50.26    2.27   1
   4   8  -3   36.74    1.62   1
   2   1  -1  203.88    2.53   1
   4  10  -4  232.03    4.45   1
   4  11  -5    1.86    0.48   1
   3  13  -9    4.50    0.61   1
   3  13  -5   23.63    1.14   1
   1  14 -11    3.39    0.59   1
   0  16  -9    0.71    0.60   1
   4  12  -7   25.90    1.86   1
   2  15  -7   25.23    1.21   1
   2  13 -11   15.13    0.91   1
   1  15 -10   71.46    3.34   1
   2  14 -10   19.21    1.11   1
   4   9  -3  452.00    6.30   1
   4  12  -6   30.43    1.75   1
   2  15  -8    5.32    0.65   1
   4  12  -8   24.93    1.22   1
   3  10  -2   34.47    1.78   1
   3  14  -7  188.07    3.83   1
   3   5  -1   58.38    1.56   1
   3   6  -1    1.58    0.28   1
   3  14  -8   56.53    2.48   1
   4  11  -4    3.94    0.64   1
   1  16  -8    2.79    0.67   1
   3  14  -6   30.25    2.10   1
   3  13  -4   63.42    2.45   1
   4  12  -5    0.09    0.42   1
   3  12  -3    0.61    0.39   1
   3   4  -1   16.16    0.94   1
   3   7  -1   65.56    1.85   1
   3  13 -10    2.55    0.66   1
   2  15  -9   34.16    1.89   1
   5   9  -5   52.79    2.14   1
   5   7  -4  398.43    5.78   1
   4   6  -2    2.93    0.34   1
   4   5  -2   16.75    0.77   1
   5  10  -6   30.20    1.71   1
   4  10  -3   19.15    1.02   1
   3  14  -9   18.64    1.11   1
   4   7  -2    2.22    0.36   1
   3  14  -5   -0.66    0.49   1
   5   8  -4  124.01    2.92   1
   4  13  -7    2.01    0.52   1
   1  16  -9    2.72    0.68   1
   2   6   0   30.01    1.23   1
   4   4  -2  131.33    2.49   1
   3   8  -1  328.93    4.62   1
   2   5   0   50.95    1.46   1
   4  13  -6   40.83    2.09   1
   4  13  -8    1.12    0.49   1
   5  10  -5   57.71    2.19   1
   4   8  -2  372.10    5.22   1
   3   3  -1  132.32    2.20   1
   4  12  -4   29.80    1.71   1
   5  11  -7    1.37    0.53   1
   2  14 -11   51.87    2.87   1
   5   9  -4   40.24    1.92   1
   5  11  -6    0.59    0.46   1
   2  15 -10    9.81    0.81   1
   2   4   0   22.44    0.97   1
   3  15  -7    1.87    0.54   1
   4  13  -5   13.94    0.97   1
   4  11  -3   34.10    1.80   1
   2  16  -7   35.13    2.11   1
   3   9  -1    1.67    0.35   1
   4  13  -9   26.22    1.79   1
   3  15  -8    2.21    0.59   1
   4   9  -2  113.76    2.87   1
   2  16  -8    6.54    0.84   1
   3  15  -6  117.91    3.06   1
   3  14 -10   99.50    3.75   1
   5   6  -3  514.51    7.01   1
   5  11  -5   11.49    0.87   1
   5   7  -3    5.19    0.47   1
   5  10  -4    0.21    0.40   1
   4  14  -7    8.70    0.72   1
   5  12  -7   25.62    1.19   1
   5   8  -3  114.62    2.82   1
   4  14  -8   28.76    1.30   1
   4  14  -6   13.64    0.96   1
   3  15  -9   28.20    1.81   1
   5  12  -6   82.38    2.67   1
   2  16  -9    4.41    0.52   1
   4  13  -4    1.80    0.68   1
   4  10  -2    2.21    0.45   1
   2   3   0   34.26    0.97   1
   4  12  -3  177.33    3.85   1
   3   2  -1    0.63    0.25   1
   5   9  -3    3.45    0.56   1
   5  11  -4   14.09    0.92   1
   5  12  -5    3.96    0.55   1
   4  14  -5  165.08    3.69   1
   4  14  -9    0.42    0.57   1
   1  17  -9    1.60    0.55   1
   5  13  -7    5.60    0.67   1
   3  16  -7   -0.47    0.49   1
   5  10  -3   35.92    1.63   1
   4  11  -2   14.03    0.91   1
   5  13  -6   57.49    2.49   1
   4   6  -1  307.35    4.26   1
   4   7  -1  153.68    2.99   1
   3  15 -10   38.67    2.01   1
   5  13  -8    2.49    0.47   1
   3  16  -8   11.26    0.97   1
   4  15  -7   17.18    1.04   1
   5  12  -4   -0.19    0.40   1
   4   5  -1  138.17    2.63   1
   4   8  -1  100.58    2.41   1
   4  15  -6    4.42    0.60   1
   4  14  -4   95.80    2.79   1
   4  15  -8   12.07    0.83   1
   4  13  -3  230.80    4.66   1
   5  13  -5  105.94    2.94   1
   2  17  -8   11.45    0.84   1
   5   7  -2    2.26    0.37   1
   6  10  -5   18.12    1.05   1
   5   6  -2   24.04    1.25   1
   3   7   0    0.86    0.26   1
   3   6   0    0.88    0.26   1
   5  11  -3   48.01    2.13   1
   3  16  -9   63.84    3.21   1
   5   8  -2   62.71    2.15   1
   6  11  -6   48.94    2.54   1
   4   9  -1   57.27    2.05   1
   4  14 -10    1.01    0.61   1
   5   5  -2    1.57    0.34   1
   4  15  -5   19.40    1.12   1
   3   8   0    0.40    0.28   1
   6   9  -4    0.93    0.42   1
   4   4  -1   36.98    1.33   1
   5  14  -7   18.86    1.07   1
   3   5   0    0.26    0.22   1
   5   9  -2  153.67    3.26   1
   4  15  -9    3.75    0.64   1
   5  14  -6   38.93    2.13   1
   6  11  -5    6.52    0.65   1
   5  14  -8    8.45    0.73   1
   5  13  -4   80.20    2.72   1
   6  10  -4  160.83    3.43   1
   2   2   0  435.30    4.91   1
   4  10  -1   12.23    0.80   1
   6  12  -7   17.85    1.08   1
   5  12  -3   89.74    2.82   1
   6  12  -6   34.48    2.09   1
   5  14  -5   68.59    2.74   1
   5  10  -2  108.81    2.80   1
   3   4   0    0.51    0.26   1
   4  16  -7   81.71    3.88   1
   6   7  -3   19.41    1.40   1
   3  17  -7   49.63    2.27   1
   4  16  -6    2.23    0.57   1
   6   8  -3    3.98    0.51   1
   3   1  -1   47.92    1.23   1
   6  12  -5   -0.57    0.43   1
   4   3  -1   31.51    1.21   1
   6  11  -4  106.89    3.00   1
   4  16  -8   78.03    3.01   1
   5  14  -9   19.02    1.15   1
   3  17  -8    2.39    0.65   1
   6   9  -3   35.56    1.71   1
   1   4   1  164.24    2.44   1
   5  11  -2   33.01    1.73   1
   5  15  -7   15.98    0.93   1
   6  13  -7    2.80    0.48   1
   5  15  -6   22.91    1.17   1
   6  13  -6   43.63    2.07   1
   5  14  -4   26.75    1.89   1
   5  13  -3    0.67    0.47   1
   6  10  -3  160.29    3.49   1
   5  15  -8   41.85    2.16   1
   4  16  -9   18.28    0.94   1
   6  12  -4   76.08    2.69   1
   6  13  -5    4.35    0.75   1
   5  15  -5   23.37    1.20   1
   5   7  -1   18.08    1.06   1
   5   8  -1  142.16    3.11   1
   3   3   0    1.45    0.26   1
   5   6  -1  109.15    2.46   1
   6  11  -3   41.96    1.95   1
   5  12  -2    0.45    0.40   1
   4   7   0    1.80    0.31   1
   5   9  -1   33.25    1.63   1
   4   8   0   16.89    0.84   1
   4   6   0  607.91    7.40   1
   6  14  -7    6.53    0.69   1
   6  14  -6   74.95    2.67   1
   2   5   1  155.31    2.40   1
   5  15  -9    4.86    0.71   1
   5   5  -1   96.25    2.23   1
   6   7  -2   73.45    2.23   1
   6   8  -2   12.41    0.82   1
   6  13  -4    3.71    0.56   1
   4   9   0   11.01    0.74   1
   4  17  -7    6.58    0.76   1
   5  14  -3   34.32    2.11   1
   4  17  -6    2.08    0.72   1
   5  15  -4   82.97    2.79   1
   4   2  -1   37.35    1.21   1
   5  10  -1  259.28    4.33   1
   6   9  -2   53.98    1.99   1
   6   6  -2   18.69    1.21   1
   5  16  -7   26.77    2.99   1
   6  12  -3   30.88    1.90   1
   6  14  -5   25.36    1.79   1
   6  14  -8  120.07    3.95   1
   4  17  -8   17.55    1.04   1
   5  16  -6    0.90    0.54   1
   4   5   0   34.40    1.31   1
   7  11  -5  203.26    4.42   1
   5  13  -2   98.89    3.09   1
   6  10  -2   57.66    2.06   1
   7  10  -4    7.39    0.65   1
   5  16  -8   -0.46    0.39   1
   7  12  -6   47.31    2.13   1
   5   4  -1  189.19    3.15   1
   5  16  -5   17.52    0.97   1
   5  11  -1    4.99    0.66   1
   1   3   1   58.03    1.10   1
   7  12  -5    8.98    0.84   1
   6  14  -4   41.86    2.25   1
   6  15  -6    6.99    0.68   1
   7  11  -4    1.68    0.50   1
   2   4   1   59.35    1.40   1
   6  11  -2   51.96    2.46   1
   6  15  -7    0.87    0.57   1
   6  13  -3    3.26    0.54   1
   7   8  -3   25.99    1.78   1
   4   4   0    0.45    0.24   1
   7   9  -3   28.70    1.84   1
   7  13  -6    1.98    0.49   1
   6  15  -5   37.59    2.16   1
   3   6   1    1.57    0.38   1
   6  15  -8    5.85    0.54   1
   2   1   0  109.19    1.58   1
   3   2   0    0.28    0.23   1
   7  10  -3   27.56    1.72   1
   7  12  -4    1.36    0.50   1
   7  13  -5   31.80    2.05   1
   6  12  -2   15.45    0.94   1
   5   3  -1   48.20    1.67   1
   6   8  -1   42.52    1.72   1
   5  17  -7   13.12    0.87   1
   6   7  -1   48.81    1.89   1
   5  17  -6  149.55    4.37   1
   7  11  -3   11.41    0.84   1
   5   8   0   -0.33    0.28   1
   6   9  -1    4.52    0.50   1
   5   7   0    0.42    0.28   1
   6  14  -3    9.00    0.73   1
   4  18  -7    3.32    0.61   1
   6  15  -4   29.20    2.18   1
   3   5   1   54.02    1.52   1
   5   9   0    0.14    0.35   1
   7  14  -6    0.26    0.54   1
   6   6  -1   70.79    2.11   1
   7  13  -4   29.75    1.85   1
   6  10  -1   19.52    1.01   1
   5   6   0    0.20    0.26   1
   5  17  -5    2.13    0.74   1
   6  16  -6    1.34    0.59   1
   6  16  -7    0.24    0.44   1
   7  14  -7  103.58    4.20   1
   6  13  -2    0.21    0.46   1
   5  10   0    0.34    0.38   1
   4   3   0   51.72    1.44   1
   7  14  -5   53.29    2.32   1
   7  12  -3  192.90    3.83   1
   7   8  -2   14.12    0.86   1
   7   9  -2    1.02    0.39   1
   6  16  -5   97.78    3.40   1
   7   7  -2   16.88    0.95   1
   6  11  -1  141.61    3.29   1
   6   5  -1  178.34    3.47   1
   7  10  -2   25.51    1.15   1
   6  16  -8    5.30    0.80   1
   2   3   1   78.11    1.61   1
   5   5   0    0.76    0.27   1
   4   8   1   97.56    2.68   1
   4   7   1  158.54    2.92   1
   6  15  -3   12.66    1.02   1
   7  14  -4  114.39    3.19   1
   3   4   1   16.78    0.89   1
   7  13  -3    0.82    0.64   1
   7  11  -2  259.97    4.81   1
   6  16  -4    2.86    0.56   1
   7  15  -6   62.41    2.46   1
   6  14  -2  102.86    2.94   1
   6  12  -1  144.81    3.37   1
   4   6   1  305.14    4.29   1
   8  12  -5   73.26    2.87   1
   7  15  -7   60.23    3.25   1
   8  11  -4   84.84    2.65   1
   7  15  -5    6.06    0.68   1
   7  12  -2  108.64    3.05   1
   5   4   0    0.09    0.22   1
   5  18  -6    6.20    0.69   1
   6  17  -6    0.22    0.37   1
   8  12  -4    6.43    0.68   1
   7  14  -3   29.24    1.95   1
   8  10  -3   89.89    2.82   1
   6   8   0  207.92    3.78   1
   6  13  -1   13.24    0.94   1
   4   5   1  138.41    2.57   1
   8  13  -5   15.40    0.93   1
   7  15  -4   29.75    1.91   1
   7  15  -8    2.41    0.62   1
   6   9   0  311.80    4.83   1
   6  17  -5    9.24    0.74   1
   7   8  -1  238.37    4.36   1
   6   7   0   21.82    0.99   1
   7   9  -1   68.67    2.39   1
   4   2   0    0.42    0.27   1
   6  10   0   64.70    2.52   1
   8  11  -3   11.54    0.77   1
   7  13  -2   18.76    1.09   1
   7   7  -1    4.30    0.49   1
   7  10  -1   31.44    1.81   1
   3   1   0    0.50    0.27   1
   1   2   1   14.46    0.61   1
   7  16  -6  132.16    4.17   1
   8  13  -4    0.12    0.49   1
   6   6   0  217.18    3.71   1
   5   8   1  140.38    2.99   1
   7  16  -7   73.60    3.28   1
   7  16  -5   14.52    1.04   1
   6  11   0   37.62    1.89   1
   7   6  -1   25.15    1.57   1
   7  11  -1   86.41    2.71   1
   5   9   1   34.53    1.77   1
   8  12  -3   18.10    1.05   1
   3   3   1  131.24    2.15   1
   8  14  -6   31.29    2.96   1
   8  14  -5    5.55    0.66   1
   5   7   1   17.96    0.89   1
   7  15  -3   17.18    1.08   1
   5   3   0    0.36    0.25   1
   8   9  -2    2.64    0.52   1
   8   8  -2    1.11    0.46   1
   4   4   1   36.48    1.38   1
   8  10  -2    2.03    0.52   1
   6   5   0  106.20    2.56   1
   7  14  -2    7.05    0.87   1
   7  12  -1  256.04    4.48   1
   5   6   1  111.72    2.47   1
   7  16  -4    1.34    0.55   1
   8  14  -4    1.35    0.52   1
   8  13  -3   16.58    1.04   1
   8  11  -2    6.69    0.63   1
   2   2   1  140.48    2.04   1
   8  15  -6   27.66    2.28   1
   8  15  -5    3.60    0.66   1
   8  12  -2    1.17    0.51   1
   7  13  -1    2.52    0.54   1
   6  18  -5    3.45    0.65   1
   7  17  -6   41.18    2.86   1
   5   5   1   95.40    2.18   1
   8  14  -3    1.40    0.40   1
   6   4   0   75.65    1.97   1
   7   9   0    1.26    0.45   1
   7   8   0    0.39    0.35   1
   7  16  -3  200.04    4.86   1
   7  15  -2   15.09    1.11   1
   8  15  -7    3.41    0.62   1
   7  17  -5    0.35    0.40   1
   7  10   0    0.14    0.44   1
   8  15  -4   14.91    0.90   1
   7   7   0   -0.40    0.35   1
   8  13  -2    2.92    0.56   1
   9  12  -4    7.63    0.86   1
   8   9  -1   22.34    1.12   1
   6   9   1    3.59    0.49   1
   6   8   1   43.61    1.80   1
   8   8  -1   15.57    0.98   1
   4   3   1   31.82    1.18   1
   8  10  -1   64.20    2.44   1
   7  11   0    0.64    0.48   1
   7  14  -1  183.18    4.63   1
   6  10   1   18.14    1.02   1
   5   2   0    0.72    0.33   1
   9  13  -5    3.01    0.61   1
   6   7   1   46.26    1.89   1
   7  17  -4    8.94    0.83   1
   3   5   2    3.45    0.40   1
   9  11  -3    1.34    0.51   1
   4   1   0  215.07    3.11   1
   8   7  -1    1.09    0.42   1
   7   6   0    1.00    0.35   1
   8  11  -1    0.42    0.45   1
   5   4   1  188.48    3.11   1
   8  16  -6    2.53    0.49   1
   8  16  -5    1.84    0.48   1
   9  13  -4   12.35    0.96   1
   7  12   0    0.64    0.52   1
   3   2   1    1.57    0.22   1
   8  15  -3   -0.15    0.52   1
   4   6   2    2.49    0.36   1
   9  12  -3    3.20    0.61   1
   6   6   1   68.25    2.11   1
   8  14  -2   18.42    1.14   1
   8  12  -1    0.94    0.48   1
   2   0   0  119.95    1.76   1
   2   4   2  324.94    4.30   1
   6   3   0  116.39    2.40   1
   8  16  -4    0.72    0.56   1
   7   5   0    0.52    0.33   1
   9  14  -5   45.74    3.08   1
   9  10  -2  139.05    3.55   1
   9  13  -3    1.49    0.51   1
   9  11  -2   40.49    2.01   1
   9  14  -4   53.24    3.19   1
   8  13  -1   14.71    1.00   1
   6   5   1  177.84    3.26   1
   4   5   2   17.73    1.13   1
   5   7   2    0.42    0.32   1
   3   4   2   47.66    1.40   1
   8  15  -2    9.69    0.85   1
   9  12  -2   41.79    2.05   1
   8   9   0    3.32    0.52   1
   8  16  -3   35.16    2.12   1
   8  10   0    1.70    0.48   1
   7   9   1   77.85    2.56   1
   8   8   0    1.65    0.47   1
   5   3   1   51.01    1.63   1
   7   8   1  236.96    4.18   1
   7  10   1   30.14    1.92   1
   9  14  -3    7.38    0.72   1
   7  18  -4   11.20    0.81   1
   9  15  -5   20.51    1.06   1
   8  11   0  163.06    3.58   1
   4   2   1   39.49    1.31   1
   5   6   2   24.14    1.41   1
   8  14  -1    3.68    0.79   1
   8   7   0    4.39    0.67   1
   7   7   1    3.80    0.47   1
   9  13  -2   81.47    2.78   1
   3   0   0    0.77    0.26   1
   7  11   1   83.02    2.68   1
   9  15  -4    1.39    0.56   1
   9   9  -1   40.75    2.38   1
   9  10  -1   56.94    2.30   1
   6   4   1  206.79    3.65   1
   8  17  -4    0.80    0.59   1
   8  12   0    0.70    0.49   1
   9   8  -1    1.35    0.48   1
   9  11  -1   35.68    2.11   1
   8   6   0    1.47    0.44   1
   7   6   1   27.45    1.48   1
   4   4   2  131.79    2.48   1
   6   9   2   56.34    2.34   1
   6   8   2   10.42    0.79   1
   5   5   2    2.30    0.36   1
   8  16  -2   20.66    1.18   1
   9  15  -3   34.21    3.09   1
   9  14  -2    4.55    0.68   1
   9  12  -1   17.08    1.04   1
   8  15  -1    2.73    0.60   1
   8  13   0   34.63    2.05   1
   2   3   2  196.21    2.70   1
   6   7   2   78.78    2.38   1
   2   1   1  196.70    2.50   1
   8  17  -3    2.89    0.68   1
  10  12  -3   13.65    1.07   1
   7   5   1    2.50    0.49   1
  10  13  -4   -0.13    0.67   1
   9  16  -4    1.31    0.41   1
   9  13  -1   45.41    1.94   1
   3   3   2    1.87    0.26   1
   6   6   2   19.50    0.91   1
   5   2   1   94.68    2.11   1
   8   9   1   21.77    1.10   1
   3   1   1   49.85    1.19   1
   6   3   1  196.40    3.53   1
   1   3   2   65.22    1.40   1
   8  14   0   10.61    0.78   1
   8  10   1   66.02    2.36   1
  10  11  -2   24.66    1.28   1
   8   8   1   14.45    0.90   1
  10  13  -3    5.07    0.63   1
   9  15  -2    0.23    0.77   1
   1   1   1    6.11    0.41   1
   9   9   0    0.69    0.48   1
   9  10   0    0.78    0.48   1
   5   4   2   11.85    0.67   1
   8  11   1   -0.05    0.48   1
   9   8   0    1.25    0.46   1
   9  16  -3    2.32    0.59   1
   9  11   0   -0.41    0.46   1
   8   7   1    1.48    0.44   1
  10  12  -2   40.32    2.22   1
  10  14  -4    0.92    0.63   1
   9  14  -1   25.66    1.87   1
   7   9   2    1.60    0.47   1
   4   3   2   30.66    1.21   1
   7   4   1  119.38    2.76   1
   6   5   2    4.36    0.43   1
   7  10   2   23.90    1.15   1
   7   8   2   13.28    0.85   1
   8  12   1    0.75    0.54   1
   9   7   0    0.41    0.43   1
   9  12   0    0.32    0.48   1
  10  14  -3    2.73    0.59   1
  10  13  -2    4.60    0.77   1
   8   6   1   19.95    0.99   1
   7   7   2   17.32    0.95   1
   4   1   1   56.94    1.42   1
  10   9  -1    3.82    0.63   1
  10  10  -1   15.53    1.04   1
  10  11  -1    0.42    0.54   1
   9  13   0   -0.05    0.49   1
   9  16  -2    0.36    0.32   1
  10  15  -4    3.48    0.68   1
   9  15  -1    0.04    0.76   1
   7   6   2   34.35    1.65   1
  10  12  -1   67.70    3.51   1
   6   2   1  108.60    2.35   1
   6   4   2   24.11    1.34   1
  10  14  -2   99.39    3.69   1
   8   5   1    8.07    0.70   1
   5   3   2    9.09    0.60   1
  10  15  -3    1.90    0.56   1
   5   6   3  509.75    6.72   1
   7   3   1    0.70    0.46   1
   4   5   3   11.75    1.01   1
   9  14   0    0.43    0.39   1
   9  10   1   59.89    2.50   1
   9   9   1   40.16    2.17   1
  10  13  -1    0.44    0.52   1
   9   8   1    0.69    0.43   1
   3   2   2  259.42    3.51   1
   9  11   1   33.52    1.92   1
   8   9   2    1.98    0.52   1
   7   5   2   18.23    1.28   1
   5   1   1    9.24    0.85   1
   8  10   2    2.60    0.56   1
   2   2   2  128.54    1.99   1
   8   8   2    0.79    0.43   1
   6   7   3   20.38    1.00   1
  10  10   0   18.22    1.08   1
   8  11   2    5.22    0.64   1
  10   9   0  232.36    4.70   1
   9   7   1    4.85    0.59   1
   9  12   1   17.09    1.06   1
  10  11   0   31.30    2.13   1
  10  15  -2    1.30    0.46   1
   8   4   1   18.52    0.94   1
   4   2   2   25.74    1.14   1
   5   5   3   48.71    1.81   1
   8   7   2   52.35    2.14   1
   9  16  -1   45.57    2.85   1
  10   8   0    0.38    0.50   1
  10  14  -1  110.21    3.66   1
   3   4   3  152.68    2.70   1
   9  17  -2    1.98    0.58   1
  10  12   0  191.45    4.27   1
   6   6   3   25.61    1.51   1
   6   3   2   25.54    1.33   1
   9  15   0   -0.89    0.70   1
   9   6   1   71.22    3.04   1
   9  13   1   45.33    3.40   1
   4   4   3   44.47    1.59   1
  11  13  -3    2.57    0.68   1
   8   6   2    1.59    0.42   1
   7   4   2   36.00    1.62   1
  11  12  -2    9.84    0.84   1
   7   9   3   28.55    1.88   1
   7   8   3   26.19    1.70   1
  10  13   0  170.76    4.47   1
   5   2   2    8.81    0.58   1
   7   7   3   37.90    1.90   1
   6   5   3   12.07    0.78   1
  11  13  -2    3.08    0.46   1
  10  15  -1   31.52    1.86   1
   5   4   3  561.35    6.88   1
  11  11  -1   35.66    2.01   1
   9  14   1   25.28    1.33   1
  11  14  -3   13.74    0.89   1
   8   5   2  283.79    4.56   1
   9   9   2  112.49    3.14   1
   3   0   1   18.73    0.86   1
   9  10   2  153.83    3.75   1
  10   9   1    4.21    0.61   1
  10  10   1   17.27    1.07   1
   9   8   2   -0.21    0.44   1
   1   2   2  151.25    2.11   1
  11  12  -1    5.70    0.78   1
   7   6   3  105.50    2.70   1
  10  14   0    0.74    0.61   1
   9  11   2   32.25    2.00   1
  10  11   1    1.47    0.51   1
   4   0   1   25.94    1.11   1
  10   8   1   19.37    1.14   1
   7   3   2    1.35    0.47   1
   9   7   2    1.87    0.47   1
  11  14  -2    1.19    0.60   1
  10  12   1   63.90    2.58   1
   9  12   2   43.65    2.29   1
   6   2   2  519.22    6.84   1
  10   7   1   24.84    1.26   1
   8   9   3    8.61    0.84   1
   3   3   3   55.96    1.57   1
  11  13  -1    6.03    0.84   1
   8  10   3   97.41    2.82   1
   4   3   3  163.42    2.83   1
   6   4   3   42.51    1.82   1
   8   8   3   92.91    2.85   1
  11  10   0    0.86    0.46   1
   8   4   2    2.80    0.44   1
   7   5   3  117.28    2.83   1
  11   9   0    0.82    0.54   1
   2   0   1  228.71    2.77   1
  11  11   0    1.17    0.56   1
  10  16  -1   30.19    2.65   1
   9   6   2    1.88    0.51   1
   8   7   3   29.24    1.68   1
  10  13   1    1.26    0.57   1
   4   1   2   12.56    0.64   1
   3   1   2  231.70    3.13   1
   5   3   3    0.60    0.36   1
  10  15   0   93.10    3.43   1
  11  12   0    1.36    0.57   1
  11  14  -1    4.91    0.56   1
   2   3   3   14.97    0.60   1
   8   6   3  258.79    4.44   1
   5   1   2  167.55    3.13   1
   9   5   2   10.44    0.84   1
   7   4   3  154.99    3.26   1
  11  13   0   -0.16    0.55   1
  10  10   2    3.13    0.59   1
  10   9   2   21.63    1.19   1
  10  14   1  108.62    3.60   1
   7   2   2   19.12    1.29   1
   6   3   3   59.22    2.02   1
   8   3   2  206.12    3.64   1
  10  11   2   23.08    1.31   1
   6   6   4   13.65    0.82   1
  10   8   2  128.44    3.31   1
   2   1   2    5.94    0.35   1
   5   5   4   77.55    2.34   1
   9   9   3    4.76    0.62   1
   9  10   3    0.53    0.59   1
   8   5   3    0.54    0.39   1
  11  10   1   93.70    2.89   1
   9   8   3   67.76    2.62   1
  11   9   1   22.95    1.24   1
  10  12   2   47.92    2.32   1
  10   7   2   74.76    2.62   1
   9  11   3    0.51    0.51   1
  11  11   1   34.37    1.88   1
  10  16   0   99.42    3.18   1
   7   7   4   14.31    0.92   1
   6   1   2    3.16    0.47   1
  11   8   1   30.07    2.00   1
   4   2   3  249.69    3.64   1
  11  14   0    0.55    0.55   1
   9   4   2   19.53    1.03   1
   9   7   3   16.67    0.98   1
  11  12   1    4.59    0.68   1
   6   5   4  169.50    3.35   1
  10  15   1   29.54    2.39   1
  12  12  -1    9.38    0.85   1
  10  13   2    3.03    0.67   1
  10   6   2    6.87    0.66   1
   3   2   3   61.90    1.61   1
   7   6   4    0.91    0.54   1
   5   2   3   53.83    1.59   1
   4   4   4   17.09    0.79   1
   7   3   3    2.22    0.45   1
  -6   5  -3   11.43    1.15   1
  -4   3  -3  168.73    4.08   1
  -9   5  -3  114.21    4.49   1
  -2   2  -2  129.97    3.04   1
  -4   6  -2    5.16    0.83   1
 -11   6  -2   26.04    3.16   1
 -13   5  -1    5.09    1.13   1
 -10   7  -2   78.79    4.53   1
 -14   7   2   52.78    3.93   1
 -14   6   1    6.92    1.05   1
 -12   8   0   59.37    4.27   1
 -14   5   0    2.89    0.96   1
 -12   5  -2   31.09    3.24   1
 -10   5  -3  143.36    4.84   1
 -12   7  -1    5.40    1.32   1
  -8   6  -3  254.85    6.09   1
  -7   6  -3  103.38    4.29   1
  -3   5  -2    2.41    0.49   1
  -5   5  -3   48.99    2.82   1
   1   9  -2  247.60    3.99   1
   2  11  -5    1.14    0.55   1
  -1  14  -9  136.75    3.30   1
   0   5   0    0.78    0.27   1
   1   7  -1   10.32    0.61   1
   1  13  -8   39.97    2.18   1
   1  13  -7    2.51    0.62   1
   2   3  -1   83.21    1.51   1
   1  13  -9   35.24    2.76   1
   0  14  -8    6.40    0.60   1
   2  12  -6    1.27    0.47   1
   0  14  -7    0.33    0.47   1
   2   4  -1   63.84    1.46   1
  -1  14 -10   43.77    2.17   1
   2   8  -2  374.06    5.20   1
   2   2  -1  144.25    2.22   1
   0   9  -1    5.33    0.54   1
   0  14  -9    0.11    0.53   1
   2  10  -3  132.23    3.05   1
  -2  15  -8    5.30    0.65   1
  -2  15  -7   28.72    1.31   1
  -2  14 -11   51.89    2.15   1
   0   6   0  559.10    6.72   1
   2   5  -1  158.72    2.64   1
  -3  15  -9   31.41    1.85   1
   1   8  -1  156.96    2.88   1
  -2  15  -9   39.82    2.11   1
  -1  15  -8    6.42    0.70   1
  -1  15  -7    3.21    0.63   1
   0  14 -10  112.20    4.05   1
   2  13  -7   33.39    2.17   1
   1  14  -7    1.02    0.54   1
   1  14  -8  150.74    3.49   1
   2   9  -2   90.03    2.30   1
  -1  14 -11    2.68    0.62   1
  -1  15  -9    6.11    0.71   1
   2   6  -1   84.27    1.91   1
  -3  15 -10   39.93    1.93   1
   2  13  -6   11.50    0.92   1
   3   9  -3   10.43    1.14   1
  -2  15 -10   11.61    0.78   1
   1  14  -9  132.47    4.37   1
   0   7   0    1.04    0.37   1
   0  10  -1    0.35    0.28   1
   0  15  -8   -0.27    0.54   1
   0  15  -7  145.56    3.66   1
   3   7  -2   13.24    1.07   1
   1   9  -1    2.75    0.47   1
  -1  15 -10   72.06    3.13   1
   2   7  -1  306.59    4.32   1
   0  15  -9    5.70    0.69   1
   1   4   0    0.26    0.16   1
   3  11  -4    8.97    0.82   1
   0  14 -11    0.38    0.54   1
   2  10  -2    1.36    0.34   1
   1   3   0    1.08    0.19   1
   1   5   0    0.56    0.20   1
  -2  16  -8    5.73    0.82   1
   3  10  -3   22.95    1.42   1
   3   8  -2  118.67    2.59   1
   0   8   0   59.15    1.83   1
   2  14  -7   93.09    3.04   1
   1  15  -7    2.35    0.45   1
  -1  16  -7  135.98    3.84   1
   1  15  -8    6.34    0.71   1
  -1  16  -8    1.41    0.61   1
   1   6   0    0.72    0.27   1
   2   8  -1   23.11    1.26   1
  -2  16  -9    5.39    0.72   1
   0  15 -10   -0.15    0.37   1
   2  14  -6    1.30    0.58   1
   1  10  -1    0.89    0.46   1
  -1  16  -9    1.35    0.55   1
   1  15  -9    5.99    0.72   1
   1   2   0    0.24    0.15   1
   0  16  -7   -0.47    0.48   1
   3  12  -4   49.87    2.25   1
   3   9  -2   32.95    1.70   1
   1   7   0    0.21    0.22   1
   2  11  -2    9.17    0.72   1
   0  16  -8  125.47    3.67   1
   3  11  -3   48.30    2.01   1
   2   9  -1  490.83    6.29   1
   3  13  -5   22.33    1.15   1
   0  16  -9   -0.39    0.54   1
   3   5  -1   54.98    1.52   1
   2  15  -7   24.61    1.17   1
   1  15 -10   66.81    3.20   1
   1  11  -1   11.56    1.20   1
   1   8   0    0.67    0.25   1
   2  15  -8    4.79    0.68   1
   3   6  -1    2.94    0.42   1
   3  10  -2   36.32    1.89   1
   2  15  -6    0.76    0.51   1
   1  16  -7  139.87    3.38   1
   1  16  -8    3.00    0.67   1
   3  14  -6   27.76    2.01   1
   3   7  -1   63.76    1.80   1
   2  10  -1    1.34    0.44   1
   3  13  -4   60.27    2.62   1
   3  12  -3    0.69    0.53   1
  -1  17  -7    5.99    0.77   1
  -1  17  -8    0.95    0.35   1
   1   9   0    0.78    0.37   1
   3  14  -5    0.30    0.45   1
   1  16  -9    0.93    0.36   1
   3   8  -1  341.72    4.82   1
  -1  17  -9    1.40    0.58   1
   2   5   0   50.22    1.41   1
   3  11  -2  426.63    5.97   1
   2   6   0   28.23    1.14   1
   0  17  -7   38.68    2.22   1
   1  12  -1   24.05    1.77   1
   0  17  -8    0.91    0.54   1
   2   7   0    4.21    0.46   1
   2   4   0   24.43    0.98   1
   2  11  -1    0.00    0.45   1
   2  16  -7   33.95    2.20   1
   3   9  -1    2.84    0.39   1
   2  16  -6    4.54    0.53   1
   3  13  -3    3.22    0.55   1
   1  10   0    0.38    0.31   1
   0  17  -9    0.48    0.36   1
   2  16  -8    5.33    0.70   1
   3  15  -6  118.78    3.34   1
   2   8   0  175.24    3.03   1
   0   6   1    0.60    0.34   1
   0   5   1  948.48   10.31   1
   1  17  -7    4.63    0.68   1
   3  12  -2    4.30    0.52   1
   1  17  -8    2.87    0.61   1
   3  15  -5   28.31    2.10   1
   3  10  -1   33.64    1.60   1
   4  10  -2    1.33    0.39   1
   2   3   0   34.25    1.02   1
   2   9   0    7.70    0.60   1
   2  12  -1    0.56    0.52   1
   4  12  -3  183.99    3.81   1
   0   4   1    0.05    0.19   1
   1  11   0    0.89    0.48   1
  -1  18  -7   27.58    1.81   1
   1  17  -9    1.18    0.57   1
  -1  18  -8   11.77    0.80   1
   3  11  -1   70.90    2.29   1
   3  16  -7    0.12    0.53   1
   4  11  -2   17.18    1.39   1
   3  13  -2    1.45    0.55   1
   2  10   0   52.88    1.85   1
   0  18  -7    0.20    0.35   1
   3  16  -6    0.06    0.38   1
   2  17  -7   35.43    2.13   1
   2  17  -6    1.36    0.58   1
   0  18  -8    1.54    0.41   1
   4  13  -3  243.06    4.93   1
   4   8  -1  104.51    2.42   1
   2  17  -8   10.39    0.86   1
   4  14  -4   96.86    3.19   1
   2  13  -1   39.13    2.01   1
   1   6   1  401.77    5.17   1
   1   7   1   10.53    0.60   1
   1  12   0    0.09    0.34   1
   3   7   0    0.37    0.39   1
   3   6   0    0.24    0.22   1
   4   9  -1   58.91    2.16   1
   1   8   1  150.55    2.76   1
   1  18  -7   18.98    0.98   1
   3   8   0    0.96    0.38   1
   1   5   1  115.94    2.01   1
   2  11   0  102.66    2.70   1
   3  12  -1   23.22    1.55   1
   4  12  -2   75.07    2.66   1
   3   5   0    1.46    0.32   1
   1  18  -8    5.69    0.55   1
   3   9   0    0.56    0.32   1
   1   9   1    1.72    0.43   1
   0   3   1  710.25    7.58   1
   4  10  -1   14.95    0.86   1
   4  14  -3   18.74    1.56   1
   2   2   0  438.13    4.91   1
   4  15  -4   35.76    2.39   1
   3  17  -6   73.15    2.66   1
   2  12   0  545.01    7.45   1
   3  17  -7   53.89    2.72   1
   1   4   1  168.53    2.37   1
   3   4   0    1.10    0.30   1
   3  10   0    0.63    0.30   1
   1  10   1    0.45    0.29   1
   4  13  -2   66.39    2.42   1
   3  13  -1   29.96    1.65   1
   4  11  -1  283.35    4.66   1
   2  18  -7   12.51    0.84   1
   2  18  -6    3.21    0.65   1
   4  16  -5    1.96    0.71   1
   2   7   1  302.67    4.32   1
   2   8   1   24.98    1.26   1
   3  11   0    0.32    0.32   1
   0  19  -6   -0.89    0.57   1
   2   6   1   81.22    1.81   1
   4  15  -3    3.47    0.65   1
   2   9   1  476.36    6.38   1
   2  13   0    3.86    0.53   1
   4  12  -1   16.55    0.93   1
   4  14  -2  113.96    3.46   1
   3  14  -1    6.61    0.74   1
   4  16  -4    3.04    0.58   1
   1  19  -6    4.24    0.54   1
   2   5   1  148.69    2.41   1
   2  10   1    0.65    0.30   1
   3  12   0    0.10    0.35   1
   4   7   0    2.57    0.45   1
   4   8   0   17.77    1.17   1
   3   3   0    1.03    0.26   1
   4   9   0   10.17    0.70   1
   4   6   0  607.45    7.45   1
   3  18  -6   48.41    2.25   1
   4  13  -1    0.25    0.54   1
   1   3   1   57.36    1.16   1
   3  18  -7   56.65    2.94   1
   2  11   1    0.68    0.33   1
   4  10   0   79.41    2.46   1
   2  14   0    4.22    0.66   1
   4  17  -5   70.72    2.98   1
   4  15  -2   11.81    0.95   1
   3  13   0    0.13    0.52   1
   2  19  -6    0.06    0.38   1
   3   8   1  323.88    4.77   1
   4  11   0  536.72    7.04   1
   2   4   1   58.96    1.38   1
   3   7   1   60.68    1.82   1
   3   9   1    3.51    0.55   1
   2  12   1    1.11    0.41   1
   4  14  -1  126.40    3.28   1
   3  10   1   37.67    1.80   1
   3   6   1    1.85    0.28   1
   5  14  -2    5.41    0.82   1
   5  12  -1  178.25    3.67   1
   4  12   0    0.89    0.56   1
   3  14   0    0.85    0.42   1
   1   8   2   21.12    0.84   1
   3  11   1   71.05    2.31   1
   0   2   1    0.11    0.12   1
   1   7   2    0.56    0.27   1
   2  13   1   40.73    2.08   1
   4  18  -6    7.54    0.77   1
   3  19  -6   -0.07    0.55   1
   4  18  -5   64.74    2.46   1
   3   5   1   54.53    1.53   1
   4  15  -1   32.95    2.08   1
   5  13  -1   15.37    0.98   1
   4  13   0   26.61    1.68   1
   3  12   1   20.88    1.00   1
   1   6   2    0.83    0.32   1
   5  16  -3  156.16    3.59   1
   5  15  -2   21.54    1.82   1
   5  10   0   -0.59    0.47   1
   3  15   0   -0.24    0.46   1
   4   9   1   53.73    2.00   1
   2   3   1   81.03    1.51   1
   2   9   2   84.08    2.41   1
   4   8   1  101.50    2.46   1
   2   8   2  353.44    4.88   1
   5  11   0    0.13    0.49   1
   5  14  -1   21.37    1.13   1
   4  10   1   11.80    0.79   1
   4  14   0   30.02    1.87   1
   2   1   0  101.78    1.56   1
   3  13   1   29.54    1.65   1
   2  10   2    1.29    0.35   1
   4   7   1  152.81    2.93   1
   2   7   2   61.63    1.76   1
   4  11   1  288.98    4.79   1
   5  12   0    1.42    0.45   1
   1   5   2   65.90    1.51   1
   3   4   1   16.11    0.89   1
   2  11   2    8.39    0.73   1
   5  16  -2   10.54    0.97   1
   4   6   1  294.36    4.20   1
   5  17  -3    1.87    0.46   1
   2   6   2   20.47    1.10   1
   1   2   1   13.14    0.58   1
   4  12   1   15.76    0.92   1
   3  14   1    5.32    0.80   1
   5  15  -1   39.14    2.39   1
   4  15   0    8.18    0.80   1
   4  19  -5    0.00    0.41   1
   5  13   0   -0.66    0.59   1
   3   9   2   31.94    1.53   1
   3  10   2   35.65    1.83   1
   3   8   2  116.50    2.56   1
   0   4   2  454.33    5.33   1
   4  13   1    0.46    0.54   1
   5  18  -4   30.26    1.37   1
   3  11   2  407.46    6.09   1
   4   5   1  134.64    2.45   1
   3   7   2   12.41    0.67   1
   5  14   0    0.57    0.48   1
   5  17  -2    3.43    0.60   1
   3  15   1    0.94    0.47   1
   2   5   2   48.62    1.44   1
   5  16  -1  119.73    3.19   1
   5   9   1   36.65    1.58   1
   5  10   1  251.14    4.40   1
   4  16   0   42.51    2.43   1
   3  12   2    4.99    0.65   1
   5   8   1  147.23    2.99   1
   1   4   2   36.41    1.16   1
   4  14   1  126.82    3.26   1
   5  11   1    3.81    0.48   1
   5  18  -3   60.73    2.38   1
   3   6   2  132.47    2.54   1
   3   3   1  124.60    2.19   1
   5  15   0    1.04    0.69   1
   5  12   1  175.84    3.62   1
   3  13   2    1.12    0.43   1
   4   9   2  114.85    2.72   1
   4  10   2    1.33    0.45   1
   3  16   1   16.77    1.07   1
   6  15  -1    0.52    0.50   1
   4  11   2   13.59    0.84   1
   4  15   1   31.30    1.92   1
   4   8   2  351.71    5.18   1
   5  13   1   17.07    1.06   1
   6  13   0  231.80    4.55   1
   4   4   1   32.43    1.31   1
   2   2   1  133.78    1.95   1
   5  19  -4   66.55    3.15   1
   4  12   2   77.71    2.55   1
   3  14   2    1.33    0.66   1
   4   7   2    2.89    0.47   1
   2   4   2  321.54    4.12   1
   3   5   2    2.87    0.41   1
   5  16   0    0.09    0.51   1
   2   9   3    6.42    0.62   1
   6  14   0   31.31    2.16   1
   5  14   1   21.48    1.65   1
   6  17  -2    6.26    0.71   1
   2   8   3   40.99    1.60   1
   4  13   2   61.49    2.44   1
   6  16  -1   49.04    2.25   1
   4  16   1  165.52    3.73   1
   3  15   2    1.10    0.49   1
   4   6   2    3.71    0.47   1
   6  11   1  140.16    3.38   1
   2   7   3  154.71    2.82   1
   6  15   0   24.16    1.95   1
   5  15   1   31.29    2.02   1
   4  14   2  109.79    3.12   1
   3  10   3   22.88    1.63   1
   5  10   2  109.48    2.94   1
   6  12   1  139.04    3.26   1
   1   6   3  304.08    4.26   1
   3   9   3   10.92    0.75   1
   5  17   0    1.37    0.69   1
   0   3   2    0.19    0.23   1
   5   9   2  145.43    3.17   1
   5  11   2   32.63    1.75   1
   3  11   3   43.42    1.99   1
   1   3   2   66.27    1.39   1
   3   8   3  101.15    2.43   1
   5  12   2    0.77    0.42   1
   5   8   2   67.86    2.19   1
   6  17  -1    1.44    0.71   1
   6  13   1   10.36    0.90   1
   3  12   3    1.03    0.56   1
   3   4   2   46.40    1.46   1
   6  18  -2    1.72    0.69   1
   4  15   2   10.66    0.97   1
   2   6   3   46.09    1.62   1
   5  13   2  102.41    3.02   1
   6  16   0  109.18    3.12   1
   5  16   1  123.53    3.51   1
   4   5   2   15.07    1.01   1
   3  13   3    1.75    0.46   1
   3   7   3    3.96    0.39   1
   5   7   2    0.45    0.43   1
   6  14   1  201.35    3.99   1
   3   2   1    0.76    0.24   1
   4  10   3   18.17    0.95   1
   4  11   3   33.89    1.93   1
   4   9   3  439.91    6.05   1
   5  14   2    3.66    0.68   1
   2   3   2  198.29    2.88   1
   1   5   3    1.50    0.41   1
   4  12   3  178.81    3.93   1
   6  19  -3    2.59    0.63   1
   4  16   2  141.83    3.46   1
   6  15   1    0.85    0.69   1
   4   8   3   38.85    1.61   1
   6  18  -1   45.63    2.33   1
   5   6   2   24.31    1.49   1
   3   6   3  297.60    4.42   1
   6  17   0   20.49    1.23   1
   5  17   1    2.81    0.48   1
   4  13   3  232.35    4.70   1
   6  10   2   55.36    2.48   1
   6  11   2   45.84    2.07   1
   5  15   2   18.74    1.11   1
   2   5   3    9.14    0.82   1
   6  12   2   14.38    0.97   1
   4   7   3    2.05    0.36   1
   6  19  -2    0.62    0.61   1
   4  14   3   21.23    1.12   1
   6  16   1   46.62    2.37   1
   4   4   2  127.34    2.40   1
   6  13   2    0.88    0.48   1
   4  17   2    0.24    0.57   1
   5  11   3   48.21    2.07   1
   5  10   3   32.06    1.54   1
   1   1   1    6.52    0.38   1
   5  16   2   10.96    0.95   1
   5  12   3   88.85    2.95   1
   5   9   3    1.88    0.41   1
   3   3   2    2.44    0.36   1
   6  14   2  102.77    3.33   1
   3   5   3   21.13    1.10   1
   6  18   0   15.49    1.11   1
   4  15   3    2.79    0.62   1
   5  13   3    1.50    0.49   1
   4   6   3   48.25    1.72   1
   3  11   4    6.56    0.71   1
   3  10   4   86.67    2.67   1
   5   8   3  112.69    2.83   1
   3   9   4  201.52    3.61   1
   6  17   1    3.18    0.66   1
   1   4   3   32.82    1.19   1
   6  15   2    4.27    0.62   1
   5  14   3   42.39    2.12   1
   7  15   1    3.68    0.86   1
   5  17   2    3.12    0.61   1
   2   7   4    7.46    0.61   1
   3   8   4   54.05    2.01   1
   2   4   3   36.70    1.35   1
   5   7   3    6.59    0.63   1
   7  17   0    2.23    0.80   1
   4  16   3   16.85    1.14   1
   2   1   1  199.19    2.56   1
   4  11   4    1.78    0.43   1
   4  10   4  232.24    4.42   1
   5  15   3    0.56    0.49   1
   4  12   4   31.23    1.94   1
   6  11   3   40.84    2.13   1
   6  16   2   15.44    1.64   1
   1   2   2  153.54    2.20   1
   6  10   3  163.42    3.59   1
   4   9   4   58.02    2.03   1
   7  16   1    8.42    0.78   1
   6  12   3   28.35    2.33   1
   4   5   3   13.09    0.71   1
   7  13   2   17.04    1.09   1
   3   7   4    1.30    0.34   1
   4  13   4    1.16    0.53   1
   6   9   3   31.09    1.70   1
   6  18   1   45.83    2.29   1
   4   3   2   30.73    1.26   1
   6  13   3    3.23    0.67   1
   3   4   3  151.02    2.67   1
   2   2   2  125.67    1.99   1
   5   6   3  515.21    6.56   1
   4   8   4    4.34    0.49   1
   7  14   2    6.24    0.85   1
   2   6   4  433.79    5.57   1
   5  16   3  165.72    4.61   1
   4  14   4   98.38    3.40   1
   6   8   3    4.06    0.65   1
   6  14   3   11.04    0.92   1
   0   2   2  275.40    3.38   1
   7  18   0    0.58    0.67   1
   6  17   2    6.57    0.76   1
   5  11   4   11.34    0.86   1
   5  10   4    0.45    0.37   1
   5  12   4    0.95    0.48   1
   7  15   2   12.14    0.94   1
   7  17   1    3.18    0.88   1
   3   6   4  124.06    2.70   1
   4   7   4   63.95    2.15   1
   5   9   4   42.30    1.80   1
   6  15   3    6.00    0.69   1
   5  13   4   81.80    2.86   1
   3   1   1   51.98    1.30   1
   5  17   3    3.63    0.67   1
   3   2   2  263.96    3.50   1
   7  16   2   15.79    1.14   1
   7  11   3   12.28    0.96   1
   5  14   4   32.28    1.95   1
   5   5   3   47.73    1.80   1
   4   4   3   45.21    1.61   1
   5   8   4  124.57    3.03   1
   2   9  -8   10.35    0.83   1
   3   5  -6   81.72    2.32   1
   3   4  -6  217.09    3.81   1
   3   5  -5   21.15    1.11   1
   3   4  -5  140.49    2.78   1
   2  10  -7   26.35    1.72   1
   3   6  -6   91.75    2.52   1
   2   8  -9   25.81    2.04   1
   0  10 -11    0.68    0.49   1
   3   6  -5   74.59    2.03   1
   2   2  -2  128.73    2.13   1
  -2  11 -12   70.40    3.37   1
   1  11  -9  117.02    3.02   1
   3   3  -5   15.94    0.77   1
   3   5  -7  502.42    6.86   1
  -3  12 -12   70.80    3.09   1
  -1  13 -10    3.05    0.62   1
   3   6  -7    1.37    0.43   1
   3   7  -6  270.23    4.40   1
   1  10 -10   23.18    1.13   1
   1  12  -8   31.58    1.92   1
   3   5  -4  265.35    4.06   1
   3   7  -5    3.07    0.50   1
   2  10  -8   38.49    1.90   1
   3   4  -4   50.64    1.60   1
  -1  10 -12   33.96    2.00   1
   0  12 -10    3.70    0.58   1
  -1  12 -11   18.59    1.11   1
   2   9  -9    2.37    0.52   1
   3   7  -7   44.94    2.05   1
   3   6  -4  125.07    2.74   1
  -2  13 -11    4.46    0.49   1
   3   3  -4   13.03    0.66   1
   3   8  -6    0.73    0.38   1
   2  11  -7    5.63    0.61   1
   0  11 -11   23.97    1.18   1
   3   6  -8    4.00    0.53   1
   3   8  -5   27.30    1.51   1
   3   7  -4   -0.30    0.27   1
   3   8  -7    9.63    0.76   1
   1   9 -11   80.17    2.75   1
   1  12  -9   19.10    1.12   1
   3   7  -8   40.67    1.93   1
   1  11 -10    8.05    0.69   1
   2   8 -10    1.07    0.52   1
   2  10  -9   34.12    1.90   1
  -2  12 -12   37.39    2.96   1
  -1  11 -12   12.41    0.88   1
   2  11  -8    0.13    0.46   1
   3   2  -4  452.28    5.84   1
   3   9  -6   72.91    2.40   1
   2   1  -2    6.51    0.55   1
   3   8  -4   54.93    2.06   1
   3   8  -8  361.36    5.44   1
   3   5  -3   23.25    1.21   1
   3   9  -7    1.94    0.47   1
   3   9  -5   13.05    0.86   1
   3   4  -3  153.89    2.70   1
   3   6  -3  288.29    4.16   1
   2   9 -10   13.17    0.92   1
  -2  10 -13    9.41    0.75   1
   0  13 -10    0.47    0.52   1
   1  10 -11   78.45    2.88   1
  -1  13 -11  103.64    3.80   1
   0  12 -11    0.10    0.56   1
   0  10 -12  115.39    3.40   1
   3   7  -9   66.28    2.42   1
   3   7  -3    4.21    0.43   1
   3   9  -8   90.15    2.76   1
   2   5  -1  147.56    2.48   1
   2  11  -9    5.70    0.62   1
   3   3  -3   55.87    1.58   1
   1  12 -10   80.16    2.66   1
   2   4  -1   59.92    1.42   1
   3  10  -6  330.86    5.13   1
   3  10  -7    5.51    0.61   1
   2  10 -10   67.64    2.66   1
  -2  14 -11   51.54    2.89   1
   1  13  -9   30.49    2.12   1
   3   8  -9    3.04    0.53   1
   2  12  -8   16.81    1.04   1
  -1  12 -12    3.11    0.47   1
   1  11 -11  132.68    3.20   1
   3  10  -8   18.29    1.04   1
   1   3   0    0.52    0.17   1
   3   9  -9    4.71    0.57   1
   0  11 -12    0.09    0.51   1
   2   3  -1   80.26    1.48   1
   3   2  -3   61.24    1.57   1
  -1  10 -13    0.28    0.55   1
   4   6  -6  113.42    2.82   1
   4   5  -6   43.34    1.81   1
   2  12  -9  107.13    3.20   1
   2   9 -11   32.85    1.88   1
   2  11 -10    1.12    0.49   1
   3  11  -7   20.79    1.11   1
   4   6  -7  174.79    3.53   1
   4   5  -7  138.49    3.09   1
   4   7  -6    4.92    0.52   1
   4   4  -6   19.09    1.30   1
   0  13 -11   26.37    1.21   1
   4   5  -5   10.30    0.74   1
   4   6  -5   99.21    2.46   1
   4   7  -7    0.46    0.39   1
   1  13 -10    2.68    0.57   1
   3  10  -9    3.78    0.57   1
   3   8 -10   50.11    2.32   1
  -1  14 -11    2.99    0.64   1
   4   4  -5  355.87    4.97   1
   4   7  -5  239.43    4.03   1
   3   5  -2    2.20    0.31   1
   3  11  -8   53.00    2.42   1
   3   6  -2  134.02    2.62   1
   4   8  -6    4.49    0.51   1
   1  12 -11   18.84    1.13   1
   4   8  -7   42.22    1.96   1
   4   6  -8  246.66    4.20   1
   1  10 -12   33.53    2.00   1
   2  10 -11   24.03    1.17   1
   3   4  -2   49.69    1.41   1
   4   7  -8   22.40    1.14   1
   0  12 -12  120.91    3.76   1
   3   9 -10   21.29    1.15   1
   4   8  -5  249.85    4.41   1
   4   3  -5  153.50    2.89   1
   4   6  -4  250.45    3.98   1
   4   5  -4   30.23    1.46   1
   2   0  -2  164.65    2.28   1
   2  12 -10    1.21    0.54   1
   4   8  -8   -0.12    0.45   1
   4   9  -6   11.11    0.81   1
   4   9  -7    1.01    0.44   1
   3   1  -3   49.81    1.36   1
   2  13  -9    9.32    0.74   1
   3  11  -9    2.22    0.52   1
   4   7  -4   65.38    1.99   1
   4   4  -4   18.13    1.21   1
   2   2  -1  141.13    2.10   1
   3   3  -2    1.61    0.24   1
   3  10 -10   25.50    1.20   1
   4   9  -5   20.83    1.83   1
   2  11 -11   52.00    2.34   1
   1  11 -12   12.56    0.86   1
   4   9  -8    0.04    0.43   1
   3  12  -8  100.78    3.03   1
   4   7  -9   76.18    2.55   1
   4   8  -4    2.90    0.46   1
   4   3  -4   10.78    0.64   1
   0  14 -11    0.65    0.59   1
   4   8  -9    1.47    0.49   1
   4  10  -6   77.55    2.60   1
   4  10  -7   23.57    1.16   1
   1  13 -11  102.20    3.78   1
   1  14 -10   40.86    2.09   1
   1   2   0    0.13    0.14   1
   4  10  -8    4.52    0.59   1
   3  12  -9   13.19    0.96   1
   3  11 -10   30.42    1.86   1
   4   9  -9    8.09    0.85   1
   3   9 -11   21.85    1.16   1
   2  13 -10    5.13    0.63   1
   4   6  -3   46.67    1.69   1
   4   5  -3   14.06    0.73   1
   2  12 -11   26.14    1.23   1
   1  12 -12    3.68    0.60   1
   4   7  -3    2.32    0.37   1
   3   2  -2  264.51    3.53   1
   4  11  -7    0.93    0.45   1
   4   2  -4   33.74    1.32   1
   2  10 -12  251.64    4.93   1
   4   4  -3   41.65    1.45   1
   4  10  -9  180.65    3.74   1
   3  10 -11  140.95    3.84   1
   4   8 -10    1.91    0.50   1
   4  11  -8    0.33    0.47   1
   3  12 -10    6.93    0.70   1
   5   6  -6    3.06    0.47   1
   5   6  -7   39.38    1.90   1
   5   7  -6    2.69    0.48   1
   5   7  -7   84.36    2.56   1
   4   9 -10   35.93    2.32   1
   5   5  -6  803.18   10.13   1
   3  13  -9    3.77    0.62   1
   4   3  -3  163.35    2.89   1
   1  14 -11    3.45    0.64   1
   2  11 -12   77.71    3.27   1
   5   8  -7    1.32    0.45   1
   5   8  -6   39.20    1.78   1
   4  11  -9    6.97    0.68   1
   5   6  -5    1.54    0.38   1
   5   7  -8   83.45    2.76   1
   5   7  -5   10.32    0.77   1
   3  11 -11   14.22    1.01   1
   5   5  -5   48.79    1.87   1
   3   5  -1   56.13    1.47   1
   2   1  -1  200.35    2.51   1
   2  13 -11   12.71    0.82   1
   2  14 -10   20.88    1.13   1
   4  10 -10   23.73    1.22   1
   5   8  -8   -0.30    0.43   1
   4  12  -8   20.84    1.13   1
   5   9  -7   34.93    2.00   1
   5   8  -5  346.68    5.24   1
   5   9  -6   37.18    1.88   1
   5   4  -5  124.40    2.86   1
   3   4  -1   15.01    0.85   1
   5   9  -8    4.05    0.58   1
   3   1  -2  229.69    3.33   1
   4   2  -3  250.01    3.67   1
   3  13 -10    2.84    0.63   1
   4   6  -2    4.30    0.51   1
   5   6  -4    0.74    0.42   1
   5   9  -5   53.68    2.31   1
   2  12 -12   37.75    2.94   1
   4  12  -9   64.33    2.53   1
   5  10  -7    0.43    0.45   1
   5   8  -9   14.03    0.97   1
   4  11 -10    2.90    0.62   1
   5   7  -4  396.45    5.85   1
   4   5  -2   15.52    0.99   1
   5   5  -4   83.32    2.12   1
   3  12 -11   10.57    0.78   1
   5  10  -6   30.09    1.86   1
   5  10  -8   64.47    2.47   1
   5   8  -4  116.96    2.97   1
   5   9  -9   12.56    0.93   1
   3  10 -12    0.60    0.54   1
   5   4  -4   42.55    1.71   1
   2   4   0   22.89    0.89   1
   4   4  -2  131.26    2.43   1
   3   3  -1  130.95    2.17   1
   4  10 -11   80.59    2.67   1
   5  11  -7    2.01    0.52   1
   2  14 -11   58.56    2.77   1
   5  10  -9   24.87    1.75   1
   5  11  -6    0.88    0.46   1
   4  12 -10    8.99    0.74   1
   5  11  -8   41.50    2.03   1
   5   3  -4  726.48    8.93   1
   4  13  -9   28.90    2.00   1
   3  11 -12   43.19    2.92   1
   4   3  -2   32.10    1.20   1
   3  13 -11   12.59    0.80   1
   5   9 -10   17.07    0.99   1
   5   6  -3  512.75    7.12   1
   3  14 -10  104.24    3.51   1
   4   1  -3   64.90    1.61   1
   5   7  -3    4.71    0.46   1
   4  11 -11   36.29    2.01   1
   5   5  -3   45.74    1.75   1
   5  11  -9   41.03    2.40   1
   5  12  -7   26.47    1.25   1
   6   7  -7   15.67    1.00   1
   6   6  -7   23.77    1.17   1
   6   7  -6    6.23    0.59   1
   5  10 -10    0.87    0.51   1
   6   6  -6    1.17    0.40   1
   6   8  -7    7.56    0.65   1
   5  12  -8   16.95    1.05   1
   2   3   0   35.35    0.99   1
   6   8  -6   41.82    1.91   1
   5   4  -3  554.15    7.02   1
   6   7  -8   69.52    2.54   1
   6   5  -6    3.71    0.48   1
   5   2  -4    5.60    0.44   1
   3  12 -12   71.72    2.99   1
   6   8  -8   27.02    1.26   1
   4  13 -10   17.67    1.08   1
   6   9  -7    6.19    0.62   1
   6   7  -5    2.09    0.44   1
   6   6  -5  134.90    3.15   1
   3   2  -1    2.23    0.28   1
   3   0  -2  196.81    2.81   1
   6   9  -6   45.86    2.20   1
   4  12 -11    3.65    0.55   1
   5  12  -9    0.49    0.54   1
   6   9  -8   -0.10    0.43   1
   6   8  -5    5.59    0.55   1
   6   5  -5  274.94    4.59   1
   5  11 -10   34.87    1.90   1
   4   2  -2   27.01    1.11   1
   5   3  -3   -0.06    0.24   1
   6  10  -7   13.84    1.00   1
   6   8  -9   89.46    3.15   1
   6   9  -5    0.80    0.46   1
   6  10  -6    0.82    0.48   1
   6   4  -5    1.16    0.49   1
   6  10  -8    0.71    0.48   1
   5  13  -8    3.84    0.60   1
   6   9  -9    1.61    0.57   1
   4   5  -1  139.06    2.50   1
   2   0  -1  223.87    2.74   1
   6   7  -4   11.19    0.79   1
   6   6  -4   17.37    0.89   1
   5  10 -11   26.52    1.78   1
   6   8  -4    1.15    0.41   1
   5   6  -2   26.19    1.58   1
   6   5  -4  168.96    3.32   1
   5  12 -10    1.87    0.59   1
   6  10  -5   18.31    1.02   1
   6  11  -7    8.39    0.74   1
   6  10  -9    0.09    0.35   1
   4  11 -12   53.53    2.87   1
   4  13 -11   94.31    3.13   1
   5  13  -9   33.69    1.82   1
   6  11  -8   34.67    1.96   1
   4  14 -10    1.55    0.55   1
   6  11  -6   49.98    2.29   1
   5   5  -2    2.34    0.34   1
   4   4  -1   35.68    1.35   1
   6   9  -4    0.25    0.42   1
   5   2  -3   55.78    1.71   1
   6   4  -4   24.82    1.68   1
   5  11 -11  113.25    3.68   1
   6   9 -10    4.13    0.63   1
   6  11  -9   25.93    1.24   1
   5   4  -2   11.65    0.66   1
   4   1  -2   12.53    0.85   1
   2   2   0  441.73    5.01   1
   6  12  -7   18.87    1.12   1
   6  12  -8   -0.05    0.37   1
   6  10 -10   46.97    2.33   1
   3   1  -1   51.08    1.31   1
   6   7  -3   19.95    0.99   1
   5  13 -10    2.35    0.45   1
   6   3  -4    0.64    0.33   1
   6   6  -3   26.43    1.46   1
   7   7  -7    1.27    0.49   1
   3   4   0    0.23    0.31   1
   6   8  -3    2.90    0.47   1
   7   8  -7  115.09    3.15   1
   7   6  -7    4.80    0.60   1
   4   3  -1   30.76    1.16   1
   7   7  -6  282.07    4.71   1
   6   5  -3   12.96    0.82   1
   5  12 -11   36.44    1.90   1
   7   6  -6  345.59    5.29   1
   7   8  -6    6.15    0.62   1
   7   7  -8   20.09    1.10   1
   5  14  -9   20.93    1.11   1
   7   8  -8   34.72    2.06   1
   5   3  -2    8.92    0.58   1
   6  12  -9   -0.01    0.52   1
   7   9  -7   41.88    2.30   1
   6  11 -10   40.15    2.14   1
   7   5  -6   14.06    0.92   1
   7   9  -6   60.85    2.29   1
   7   9  -8  242.13    5.11   1
   5   1  -3   25.82    1.22   1
   7   7  -5    1.31    0.47   1
   7   6  -5    1.71    0.46   1
   6   4  -3   39.91    1.61   1
   7   8  -5    1.57    0.46   1
   7  10  -7   25.41    1.21   1
   6  13  -8    6.34    0.85   1
   7   8  -9    4.92    0.63   1
   7   5  -5   14.11    0.85   1
   7  10  -8   61.29    2.53   1
   7  10  -6    0.73    0.48   1
   7   9  -5   22.64    1.13   1
   7   9  -9   20.94    1.07   1
   6  12 -10   13.84    0.93   1
   6  10 -11    0.72    0.55   1
   5  14 -10    6.82    0.72   1
   3   3   0    0.81    0.20   1
   7   4  -5  146.56    3.43   1
   6   3  -3   57.75    1.93   1
   7  11  -7   44.04    2.13   1
   6  13  -9    0.97    0.36   1
   7   7  -4   18.19    0.98   1
   5   2  -2    9.44    0.58   1
   7  10  -5   20.79    1.13   1
   7  10  -9    6.50    0.70   1
   4   2  -1   39.67    1.31   1
   7   6  -4    0.83    0.37   1
   7  11  -8  119.47    3.21   1
   7  11  -6  149.47    3.97   1
   7   8  -4  197.42    3.80   1
   5   5  -1  100.55    2.28   1
   6   7  -2   80.64    2.31   1
   7   5  -4  357.08    5.38   1
   4   0  -2  179.28    2.97   1
   6   6  -2   19.35    0.92   1
   7   9  -4  189.97    4.11   1
   6  11 -11    2.11    0.47   1
   6   5  -2    7.34    0.62   1
   7  11  -9   35.43    2.12   1
   7   9 -10   28.57    1.73   1
   7  12  -7   50.77    2.31   1
   7   4  -4   57.48    2.13   1
   5   4  -1  192.37    3.18   1
   7  12  -8    0.51    0.51   1
   6  13 -10    3.77    0.60   1
   6   2  -3  189.39    3.27   1
   7  10 -10  121.95    3.96   1
   6   4  -2   25.70    1.32   1
   7   7  -3   41.87    2.06   1
   3   0  -1   18.81    0.82   1
   6  14  -9    4.26    0.65   1
   8   7  -7    1.39    0.50   1
   7   6  -3  102.59    2.71   1
   8   8  -7   65.15    2.47   1
   7   8  -3   22.96    1.70   1
   7  12  -9    9.37    0.78   1
   8   7  -6    1.11    0.45   1
   8   6  -7    1.54    0.51   1
   8   8  -6    1.43    0.48   1
   7   3  -4    2.02    0.39   1
   5   1  -2  170.55    3.08   1
   2   1   0  109.49    1.56   1
   8   6  -6   34.70    1.79   1
   8   9  -7    2.86    0.56   1
   8   7  -8   -0.66    0.43   1
   8   8  -8    0.45    0.49   1
   7   5  -3  120.35    2.78   1
   7  11 -10   33.78    2.07   1
   8   9  -6   18.52    1.05   1
   4   4   0   -0.24    0.34   1
   5   3  -1   48.91    1.63   1
   8   9  -8    1.61    0.54   1
   3   2   0    0.49    0.24   1
   8   5  -6   16.33    0.99   1
   4   1  -1   55.17    1.46   1
   8   7  -5   26.37    1.70   1
   6   3  -2   24.53    1.34   1
   8  10  -7   60.04    2.60   1
   7  13  -8  121.33    3.96   1
   8   8  -5   63.09    2.40   1
   8   6  -5   25.59    1.62   1
   7   4  -3  160.72    3.25   1
   8  10  -6   65.72    2.62   1
   8  10  -8   32.67    1.92   1
   8   8  -9   97.40    3.03   1
   8   9  -5    3.98    0.56   1
   8   5  -5    3.95    0.56   1
   8   9  -9    7.33    0.68   1
   7  12 -10   72.13    3.07   1
   8  11  -7   -0.26    0.47   1
   7  13  -9    2.16    0.44   1
   2  -1  -1  203.71    2.58   1
   7  10 -11   98.52    3.20   1
   8  10  -5   83.97    2.73   1
   6   6  -1   67.42    2.23   1
   8  11  -6   58.84    2.44   1
   8  11  -8    9.95    0.75   1
   8   7  -4  128.74    3.14   1
   8  10  -9    8.72    0.77   1
   8   4  -5    0.83    0.45   1
   8   6  -4    2.25    0.48   1
   8   8  -4    2.58    0.54   1
   7   3  -3    2.42    0.39   1
   4   3   0   53.63    1.58   1
   7   7  -2   16.46    0.92   1
   6   2  -2  523.81    6.51   1
   5   2  -1   98.96    2.05   1
   6   5  -1  174.25    3.39   1
   7   6  -2   35.13    1.72   1
   8   9  -4   28.61    1.30   1
   8   5  -4   23.66    1.75   1
   7   5  -2   19.30    0.94   1
   8  12  -7   17.62    1.12   1
   8  11  -9    9.98    0.77   1
   5   0  -2  349.38    4.71   1
   8   9 -10    0.79    0.70   1
   8  12  -8    6.19    0.69   1
   6   4  -1  214.38    3.54   1
   8   4  -4    8.27    0.75   1
   7   2  -3  274.67    4.43   1
   7   4  -2   38.99    1.58   1
   8  10 -10    8.53    0.61   1
   8   7  -3   28.20    1.72   1
   8   6  -3  261.70    4.37   1
   8   8  -3   86.83    2.89   1
   9   7  -7   67.12    2.43   1
   9   8  -7  145.45    3.65   1
   8  12  -9    6.24    0.68   1
   9   7  -6   31.93    1.87   1
   9   8  -6    7.01    0.69   1
   4   0  -1   27.54    1.09   1
   9   9  -7   13.36    0.98   1
   3   1   0    0.04    0.21   1
   5   4   0    0.56    0.37   1
   8   5  -3    0.86    0.39   1
   8   3  -4  145.89    3.14   1
   6   1  -2    3.00    0.37   1
   9   8  -8  188.72    5.06   1
   9   6  -6  543.97    8.07   1
   9   9  -6  174.22    3.67   1
   4   2   0    1.11    0.31   1
   6   3  -1  201.92    3.36   1
   8  11 -10    0.76    0.60   1
   9   9  -8  120.96    3.24   1
   9   7  -5    0.54    0.45   1
   5   1  -1   10.30    0.58   1
   7   3  -2    1.74    0.46   1
   9   8  -5    9.56    0.70   1
   9  10  -7   32.62    1.92   1
   8  13  -8    2.39    0.57   1
   9   6  -5    3.98    0.56   1
   9  10  -6   27.32    1.30   1
   8   4  -3  180.33    3.52   1
   9   9  -5   -0.28    0.47   1
   9  10  -8   14.69    1.06   1
   3  -1  -1   51.69    1.18   1
   9   5  -5    0.81    0.47   1
   2   3   1   79.73    1.63   1
   7   6  -1   26.00    1.60   1
   9  11  -7   51.74    2.35   1
   9  10  -5   33.62    2.00   1
   5   3   0    0.39    0.23   1
   9   9  -9    0.79    0.36   1
   9  11  -6   62.63    3.62   1
   9   7  -4  190.40    4.06   1
   9   8  -4  161.45    3.75   1
   9   6  -4   38.00    1.99   1
   9  11  -8  191.15    4.52   1
   8   7  -2   48.15    2.22   1
   8   3  -3   29.35    1.57   1
   7   5  -1    1.54    0.40   1
   6   2  -1  109.40    2.41   1
   9   4  -5   21.31    1.69   1
   8   6  -2    2.52    0.45   1
   7   2  -2   20.00    1.23   1
   9  10  -9   18.15    0.99   1
   9   9  -4   23.69    1.16   1
   9   5  -4   28.72    1.78   1
   8   5  -2  284.63    4.57   1
   6   5   0  112.78    2.51   1
   7   4  -1  120.32    2.72   1
   2   0   0  121.70    1.70   1
   9  12  -7   11.98    0.82   1
   9  11  -9    5.41    0.56   1
   9   4  -4  192.62    3.95   1
   3   3   1  135.17    2.23   1
   9  12  -8   11.17    0.84   1
   4   1   0  217.53    3.22   1
   8   4  -2    2.79    0.44   1
   8   2  -3  431.54    6.15   1
   9   7  -3   17.74    1.03   1
   5   0  -1  431.94    5.56   1
   6   4   0   79.02    2.09   1
   9   8  -3   69.31    2.52   1
   9   6  -3   23.83    1.14   1
   5   2   0    0.16    0.28   1
   7   3  -1   -0.01    0.27   1
   7   1  -2  113.67    2.62   1
   9   5  -3  109.12    2.98   1
  10   7  -7    4.59    0.54   1
  10   8  -7   -0.09    0.51   1
  10   8  -6   -0.07    0.34   1
   6   1  -1  136.94    2.66   1
  10   7  -6    4.92    0.66   1
   9   3  -4   99.77    2.74   1
  10   9  -7    5.93    0.69   1
  10   6  -6   28.35    1.69   1
   4  -1  -1   56.91    1.44   1
   8   3  -2  215.69    3.81   1
  10   9  -6   36.28    2.28   1
   9  13  -7   13.24    0.82   1
  10   7  -5   25.79    1.22   1
  10   8  -5   58.85    2.59   1
  10   8  -8    1.37    0.60   1
   9   4  -3   52.47    2.11   1
   3   0   0    0.41    0.15   1
   6   3   0  115.99    2.56   1
  10   6  -5   27.04    1.24   1
  10  10  -7   38.86    1.97   1
  10   9  -8    4.16    0.62   1
  10   9  -5   17.11    1.07   1
  10  10  -6    0.78    0.55   1
   8   6  -1   20.92    1.03   1
  10   5  -5    6.42    0.65   1
   2   2   1  139.04    2.00   1
   7   2  -1  424.43    5.77   1
   4   3   1   31.27    1.20   1
  10  10  -8   10.71    0.76   1
   8   5  -1    5.77    0.53   1
  10  10  -5   15.85    0.95   1
   9   7  -2    2.35    0.48   1
  10   7  -4   12.60    0.93   1
  10   8  -4    1.26    0.53   1
   8   2  -2   30.24    1.74   1
   9   3  -3    1.51    0.45   1
   9   6  -2    0.44    0.42   1
  10   6  -4    8.16    0.80   1
  10  11  -7    3.66    0.50   1
   7   5   0    0.29    0.30   1
  10  11  -6   56.26    2.92   1
   5   1   0    1.28    0.27   1
  10   9  -4    0.89    0.54   1
   3   2   1    0.84    0.21   1
   9   5  -2   11.28    0.81   1
   8   4  -1   17.34    0.92   1
  10   9  -9    0.68    0.55   1
  10   5  -4  127.31    3.19   1
  10  11  -8    4.83    0.51   1
   6   2   0   32.69    1.30   1
  10  11  -5   10.54    0.98   1
   6   0  -1    0.84    0.26   1
   7   4   0    0.82    0.32   1
  10  10  -4    7.78    0.70   1
   4   0   0  601.34    6.89   1
   9   4  -2   19.80    1.00   1
  10   4  -4   35.79    1.72   1
   5  -1  -1    8.55    0.46   1
   9   2  -3   21.89    1.45   1
  10   7  -3    0.34    0.56   1
  10  12  -7    5.80    0.53   1
   8   3  -1   19.75    1.32   1
   7   1  -1  109.55    2.44   1
  10  12  -6    1.12    0.56   1
  10   8  -3   57.23    2.07   1
  10   6  -3   21.01    1.13   1
   8   1  -2   40.89    1.77   1
   5   3   1   49.56    1.59   1
  10   9  -3    6.88    0.67   1
  10   5  -3  149.70    3.32   1
   4   2   1   35.94    1.27   1
   7   3   0    0.42    0.31   1
   9   3  -2   85.14    2.67   1
  11   7  -6   29.69    1.34   1
  11   8  -6   39.02    1.87   1
  11   6  -6    5.67    0.66   1
   9   6  -1   72.74    2.53   1
  10   4  -3    1.18    0.49   1
  11   7  -7   23.59    1.23   1
  11   8  -7    2.97    0.61   1
   6   1   0   36.60    1.38   1
   8   2  -1  112.50    2.57   1
  11   9  -6    0.86    0.57   1
  11   7  -5   14.72    0.90   1
  11   8  -5  107.40    3.04   1
  11   9  -7   19.02    0.98   1
   9   5  -1   14.83    0.92   1
  11   6  -5    0.70    0.47   1
   5   0   0    0.52    0.24   1
   8   5   0  106.66    2.76   1
  11   9  -5   31.00    1.83   1
   9   2  -2    4.69    0.52   1
  10   7  -2   75.27    2.52   1
   7   2   0   -0.30    0.26   1
  11  10  -6    1.71    0.57   1
  10   6  -2    7.06    0.67   1
  11   5  -5   24.59    1.25   1
  11   8  -8    1.18    0.61   1
  11  10  -7   13.34    0.87   1
  10   8  -2  131.81    3.50   1
  10   3  -3    9.56    0.82   1
   9   4  -1    6.86    0.58   1
  11   7  -4   38.17    2.08   1
   7   0  -1  357.26    5.30   1
  11   8  -4    0.70    0.35   1
   5   2   1  101.09    2.20   1
  11   9  -8    3.48    0.66   1
   8   4   0   16.54    0.92   1
  10   5  -2   39.86    1.89   1
  11   6  -4   75.55    2.50   1
  11  10  -5    1.45    0.62   1
   6   3   1  202.46    3.61   1
  11   9  -4    0.64    0.38   1
   3   1   1   50.44    1.19   1
  11   5  -4  250.82    4.75   1
   8   1  -1    2.48    0.40   1
   3  -1   0   -0.10    0.15   1
  10   4  -2   97.56    2.68   1
  11  11  -6   -0.55    0.28   1
   9   3  -1   45.52    2.05   1
   8   3   0   23.55    1.40   1
   2   1   1  203.27    2.59   1
  11  10  -4    1.33    0.76   1
   4   1   1   55.96    1.44   1
   9   1  -2    0.77    0.38   1
  11  11  -5    0.28    0.57   1
  11   4  -4    0.58    0.55   1
  11   7  -3    6.20    0.64   1
   4  -1   0  215.35    3.06   1
   6   0   0  523.09    6.69   1
  11   8  -3    0.88    0.51   1
  11   6  -3   48.27    2.22   1
   7   1   0    0.04    0.36   1
   7   4   1  123.86    2.74   1
   2  -1   0  106.81    1.51   1
  10   3  -2   36.55    1.84   1
  11   5  -3   40.10    2.07   1
  11   9  -3    5.17    0.64   1
   6   2   1  110.97    2.36   1
  10   7  -1   22.86    1.18   1
   9   2  -1   32.81    1.64   1
  10   6  -1    4.19    0.57   1
   9   5   0    0.40    0.42   1
   5   1   1    9.30    0.83   1
   8   2   0   72.55    2.28   1
  10   5  -1   40.90    2.05   1
  11   4  -3   41.12    2.03   1
   7   3   1    0.94    0.32   1
   8   0  -1  598.88    7.64   1
   5  -1   0    0.39    0.24   1
  10   2  -2  251.69    4.45   1
   9   4   0    0.05    0.36   1
  10   4  -1   86.12    2.70   1
  12   7  -6    1.96    0.39   1
  12   8  -6   10.09    0.78   1
  11   7  -2    3.46    0.62   1
  12   7  -5    1.90    0.56   1
  11   6  -2   28.18    1.26   1
  12   8  -5   60.10    3.41   1
  11   8  -2    8.47    0.73   1
  12   6  -6    2.42    0.65   1
  12   6  -5    8.59    0.71   1
  11   3  -3   16.31    1.00   1
  12   9  -6    3.27    0.49   1
  11   5  -2   18.56    1.05   1
  12   7  -7    5.18    0.69   1
   9   1  -1   70.19    2.16   1
   7   0   0    0.83    0.32   1
  12   8  -7    1.35    0.60   1
  12   9  -5   56.46    3.03   1
  12   5  -5    7.34    0.71   1
   9   3   0    0.76    0.39   1
  12   7  -4   44.91    2.22   1
   6   1   1  138.68    2.71   1
   8   4   1   17.69    0.91   1
  10   3  -1  110.16    2.83   1
   7   2   1  431.51    6.15   1
   8   1   0   32.75    1.57   1
  12   6  -4   45.92    2.20   1
  12   8  -4   10.76    0.79   1
  11   4  -2   -0.61    0.42   1
  12  10  -6   -0.15    0.35   1
   6  -1   0   34.21    1.35   1
   4   0   1   28.12    1.01   1
  12   5  -4    1.63    0.51   1
  12  10  -5    0.15    0.38   1
  12   9  -4   65.00    3.16   1
   3   0   1   18.74    0.78   1
   8   3   1   21.13    1.41   1
   9   2   0    1.03    0.37   1
  12   7  -3   53.51    2.21   1
  11   3  -2    0.06    0.42   1
   5   0   1  437.08    5.42   1
  10   2  -1   52.96    2.22   1
  12   4  -4   17.72    1.07   1
  12   6  -3    2.34    0.53   1
  10   5   0   82.99    2.69   1
  12   8  -3   49.57    2.26   1
  11   7  -1    2.62    0.60   1
  12  10  -4   45.93    2.71   1
  11   6  -1   25.47    1.19   1
   9   0  -1  113.88    2.73   1
  12   5  -3   12.52    0.84   1
   7   1   1  111.09    2.62   1
  11   5  -1   -0.03    0.55   1
  10   4   0   55.54    2.21   1
  12   9  -3   20.94    1.16   1
   8   0   0   55.35    2.02   1
   4   2   2   23.78    1.13   1
   4  -2   0    1.25    0.30   1
   7  -1   0    0.97    0.44   1
   8   2   1  121.99    2.78   1
   6   0   1    0.28    0.38   1
  12   4  -3   21.18    1.17   1
  11   2  -2    5.48    0.60   1
  11   4  -1    0.60    0.44   1
   5   2   2    9.83    0.61   1
   9   4   1   11.30    0.86   1
   5  -2   0    0.93    0.26   1
   9   1   0    0.59    0.37   1
  10   1  -1    4.82    0.55   1
  10   3   0   31.13    1.71   1
   3   2   2  267.90    3.68   1
  12   7  -2   24.25    1.78   1
  12   6  -2    1.82    0.42   1
   3  -2   0    1.49    0.24   1
  12   8  -2  217.83    4.74   1
   2   0   1  224.56    2.73   1
  12   5  -2   30.72    1.75   1
  11   3  -1    3.37    0.51   1
  12   3  -3    1.46    0.55   1
   9   3   1   47.69    2.01   1
   6   2   2  533.51    6.59   1
   7   3   2    1.18    0.36   1
   8   1   1    2.26    0.40   1
  12   4  -2  201.47    3.82   1
   7   0   1  358.06    5.09   1
  10   2   0   14.36    0.91   1
  13   7  -5    2.42    0.49   1
  13   8  -5   -0.10    0.35   1
  13   7  -6    6.39    0.70   1
  13   6  -5   92.24    3.77   1
  11   6   0    0.12    0.51   1
   8  -1   0   34.31    1.75   1
  13   6  -6    1.40    0.53   1
  13   7  -4   28.25    1.26   1
  11   2  -1   26.05    1.83   1
   5  -1   1   10.44    0.60   1
   9   0   0   -0.15    0.34   1
   4  -1   1   54.03    1.46   1
  13   6  -4    0.17    0.53   1
  11   5   0    0.49    0.48   1
   9   2   1   32.43    1.61   1
  13   5  -5   45.63    2.02   1
  13   8  -4    7.47    0.70   1
   5   1   2  177.24    3.15   1
  12   3  -2    1.32    0.51   1
   4   1   2   11.27    0.59   1
   7   2   2   19.48    1.30   1
  13   5  -4   33.74    2.00   1
  11   4   0    0.33    0.46   1
  12   7  -1    5.59    0.69   1
  12   6  -1   93.43    3.04   1
   6  -1   1  136.04    2.63   1
  10   4   1   81.83    2.69   1
  12   5  -1   19.57    1.10   1
   8   3   2  219.30    3.94   1
  10   1   0   24.73    1.55   1
   6   1   2    4.01    0.47   1
  13   9  -4    1.35    0.61   1
  13   7  -3   19.55    1.12   1
  13   6  -3   64.70    2.47   1
  13   4  -4    1.08    0.55   1
   8   0   1  602.53    7.52   1
  13   5  -3    1.93    0.55   1
   3  -1   1   52.39    1.21   1
  11   3   0    0.75    0.45   1
  13   8  -3    4.79    0.55   1
  11   1  -1   38.84    1.96   1
  12   4  -1    6.87    0.66   1
  12   2  -2   48.24    2.28   1
   9   1   1   70.22    2.25   1
  10   3   1  111.76    3.01   1
   3   1   2  230.76    3.08   1
   7  -1   1  104.28    2.45   1
  13   4  -3    3.61    0.57   1
   7   1   2  113.61    2.59   1
   9  -1   0    0.64    0.48   1
   8   2   2   25.77    1.47   1
  13   9  -3   -0.15    0.53   1
   2  -2   0  404.70    4.55   1
  13   7  -2   16.61    1.09   1
  12   3  -1    0.60    0.47   1
  13   6  -2   35.45    2.10   1
  11   2   0    0.17    0.42   1
  -6   5  -3   14.96    1.25   1
  -4   3  -3  172.68    4.13   1
  -9   5  -3  110.55    4.56   1
  -2   2  -2  127.67    3.02   1
  -4   6  -2    4.53    0.81   1
 -11   6  -2   29.53    2.51   1
 -13   5  -1    3.09    0.97   1
 -10   7  -2   64.59    3.74   1
 -14   7   2   59.74    4.49   1
 -14   6   1    6.72    1.02   1
 -12   8   0   61.03    4.22   1
 -14   5   0    3.02    1.22   1
 -12   5  -2   33.82    2.95   1
 -10   5  -3  147.86    4.96   1
 -12   7  -1    8.83    1.43   1
  -8   6  -3  260.99    6.71   1
  -7   6  -3  103.73    3.99   1
  -3   5  -2    3.18    0.51   1
  -5   5  -3   45.92    2.94   1
  -4   6  -2    3.70    0.48   1
  -6   6  -3   24.47    1.69   1
  -2   3  -2  195.70    2.91   1
 -12   8   0   55.41    2.32   1
  -5   8  -1  131.96    2.88   1
 -13   7   0    1.06    0.51   1
  -5   7  -2    0.71    0.38   1
 -11   8  -1   27.07    1.91   1
  -3   5  -2    2.52    0.30   1
  -8   8  -2    0.79    0.41   1
 -11   7  -2    3.87    0.58   1
  -8   9  -1   25.36    1.77   1
  -7   8  -2   13.89    0.84   1
  -9   8  -2   -0.37    0.43   1
  -1   4   0    0.42    0.17   1
  -9   9  -1   42.86    2.06   1
  -7   9  -1   74.06    2.49   1
  -2   6   0   27.86    1.29   1
 -11   9   0    0.32    0.52   1
  -2   5  -1  148.35    2.56   1
 -14   7   2   56.51    2.85   1
  -8   7  -3   29.83    1.85   1
 -14   6   0    3.55    0.50   1
 -13   8   1   49.50    2.16   1
  -7   7  -3   39.80    1.91   1
 -10   8  -2  124.55    3.09   1
  -5   6  -3  506.35    6.42   1
  -4   5  -3   14.65    0.99   1
  -6   8  -2   11.73    0.80   1
 -12   9   1   55.30    2.25   1
 -10   9  -1    3.47    0.56   1
  -8  10   0    4.27    0.69   1
  -6   9  -1    6.52    0.68   1
 -14   7   1   64.94    2.87   1
  -9  10   0    0.56    0.46   1
 -12   8  -1   40.77    2.33   1
 -13   7  -1    1.35    0.50   1
  -6   7  -3   20.55    0.99   1
 -12   7  -2   27.19    1.91   1
  -4   8  -1   94.94    2.35   1
 -13   8   0    0.85    0.54   1
 -10  10   0   20.49    1.13   1
  -4   7  -2    2.08    0.46   1
 -11  10   1   95.71    2.68   1
  -1   3  -1   54.96    1.16   1
  -3   7  -1   61.56    1.74   1
 -11   8  -2    7.59    0.68   1
 -12   9   0   29.26    1.70   1
 -11   9  -1   23.43    1.16   1
  -3   4  -3  151.18    2.72   1
  -2   4  -2  301.67    3.92   1
  -8   9  -2    2.78    0.57   1
  -5   8  -2   58.91    2.08   1
  -9   9  -2  108.82    2.97   1
  -3   6  -2  123.45    2.46   1
  -5   9  -1   30.28    1.79   1
  -7   9  -2    3.29    0.58   1
 -14   7   0    0.82    0.45   1
  -8  10  -1   65.27    2.43   1
  -8   8  -3   88.56    2.71   1
 -14   6  -1    5.52    0.64   1
 -13   9   2    2.58    0.55   1
  -9  10  -1   56.42    2.52   1
  -9   8  -3   64.30    2.49   1
 -11  10   0   -0.16    0.48   1
  -7  10  -1   29.31    1.84   1
  -7   8  -3   24.10    1.49   1
 -10   9  -2   22.86    1.14   1
  -5   7  -3    7.19    0.63   1
  -4   6  -3   46.17    1.70   1
 -13   9   1    2.65    0.45   1
 -10  10  -1   16.41    1.01   1
  -6   9  -2   53.65    2.11   1
 -14   8   1   12.47    0.81   1
 -10   8  -3   53.46    2.25   1
  -2   6  -1   79.14    1.80   1
 -12   8  -2  210.95    4.40   1
 -12   9  -1   49.42    2.26   1
 -12  10   1   19.98    1.11   1
 -13   8  -1   47.86    2.13   1
  -6   8  -3    6.00    0.65   1
  -6  10  -1   12.44    1.00   1
  -1   5   0    1.60    0.30   1
 -11   9  -2    0.61    0.47   1
 -13   9   0    0.14    0.52   1
  -3   5  -3   22.39    1.16   1
 -11  10  -1   91.05    2.80   1
  -4   8  -2  337.70    4.99   1
 -10  11   0   29.96    2.01   1
 -12  10   0   49.35    2.25   1
  -8  10  -2    3.67    0.53   1
 -14   7  -1   65.37    2.79   1
  -4   9  -1   55.62    1.97   1
  -2   5  -2   48.94    1.43   1
 -14   8   0   56.52    2.75   1
  -9  10  -2  150.01    3.53   1
  -5   9  -2  148.14    3.09   1
  -8   9  -3   10.49    0.86   1
  -3   8  -1  299.33    4.39   1
  -1   4  -1  159.62    2.39   1
  -9   9  -3    9.19    0.85   1
  -7  10  -2   25.14    1.61   1
  -3   7  -2   12.55    1.02   1
  -7   9  -3   30.40    1.59   1
 -10  10  -2    4.12    0.57   1
  -4   7  -3    3.22    0.51   1
  -5   8  -3  105.33    2.59   1
  -8  11  -1    0.15    0.58   1
  -5  10  -1  248.52    4.08   1
  -9  11  -1   30.23    2.23   1
 -10   9  -3   11.33    0.93   1
  -1   1  -2  168.35    2.26   1
 -11  11   0    0.46    0.53   1
 -12   9  -2   83.73    3.19   1
  -7  11  -1   82.37    2.52   1
  -2   3  -3   16.81    0.94   1
 -13   9  -1    4.87    0.63   1
 -10  11  -1    0.56    0.52   1
  -6  10  -2   45.73    2.13   1
 -13  10   1    1.76    0.54   1
 -13   8  -2   14.30    1.00   1
 -12  10  -1   12.25    0.81   1
  -6   9  -3   37.78    1.88   1
  -7   8  -4  200.35    3.68   1
 -11  10  -2   33.73    2.20   1
  -3   6  -3  280.47    4.16   1
  -2   7  -1  276.29    3.88   1
 -14   8  -1   13.05    0.82   1
 -11   9  -3    6.88    0.68   1
  -6  11  -1  136.12    3.22   1
  -1   2  -2  147.97    2.02   1
  -5   7  -4  391.20    5.69   1
 -13  10   0    0.76    0.50   1
 -11  11  -1   33.06    1.89   1
  -8  10  -3   94.28    2.76   1
  -4   9  -2  111.28    2.73   1
  -2   6  -2   20.54    1.07   1
  -8  11  -2    9.33    0.81   1
  -9  10  -3    0.38    0.46   1
  -9  11  -2   34.30    1.91   1
  -6   8  -4    2.04    0.55   1
 -12  11   0  351.18    6.21   1
  -2   4  -3   35.08    1.24   1
  -5  10  -2  102.77    2.75   1
  -7  10  -3   23.11    1.52   1
  -1   5  -1  110.71    1.93   1
  -3   8  -2  105.93    2.56   1
  -4   8  -3   34.21    1.55   1
  -7  11  -2  258.43    4.53   1
  -5   9  -3    3.70    0.59   1
 -10  10  -3  108.08    2.96   1
 -10  11  -2   26.14    1.77   1
  -3   9  -1    2.38    0.46   1
  -8   9  -4   24.73    1.62   1
 -12  10  -2   27.21    1.27   1
  -1   3  -2   66.80    1.38   1
 -13   9  -2    1.76    0.54   1
  -8  12  -1    1.41    0.60   1
  -9  12  -1   20.20    1.11   1
 -13  10  -1    1.97    0.45   1
  -7   9  -4  188.04    3.80   1
  -6  10  -3  158.43    3.36   1
  -3   7  -3    4.99    0.51   1
  -6  11  -2   50.25    2.26   1
 -11  12   0    0.08    0.66   1
 -10  12  -1   60.05    2.72   1
 -12  11  -1   44.93    2.50   1
  -5   8  -4  116.17    2.85   1
 -11  11  -2   16.18    1.03   1
 -11  10  -3   50.15    2.75   1
  -4   7  -4   65.74    2.09   1
  -2   8  -1   23.42    1.24   1
  -2   5  -3    8.86    0.54   1
  -6   9  -4    0.32    0.40   1
  -2   7  -2   59.20    1.77   1
  -8  11  -3   15.64    1.01   1
  -9  11  -3   -0.42    0.44   1
  -4  10  -2    2.09    0.51   1
  -1   4  -2   36.63    1.16   1
 -13  11   0    0.09    0.62   1
  -8  12  -2    2.05    0.51   1
  -4   9  -3  418.91    5.89   1
 -11  12  -1    5.30    0.63   1
  -9  12  -2   35.26    1.95   1
  -7  11  -3   11.56    0.84   1
  -5  10  -3   32.38    1.70   1
  -8  10  -4   59.85    2.35   1
  -1   6  -1  368.85    4.58   1
 -10  11  -3   14.69    0.89   1
  -9  10  -4   44.12    2.06   1
  -5  11  -2   28.25    1.63   1
  -3   9  -2   30.30    1.67   1
  -7  12  -2  107.29    3.26   1
 -10  12  -2   38.80    2.09   1
  -7  10  -4    9.94    0.84   1
 -12  12   0   80.12    3.25   1
 -13  10  -2    1.19    0.56   1
 -12  11  -2   12.86    0.83   1
  -3   8  -3  102.31    2.44   1
  -3   6  -4  123.48    2.58   1
 -10  10  -4    8.99    0.88   1
 -12  10  -3    1.09    0.55   1
  -5   9  -4   38.85    1.95   1
  -6  11  -3   44.11    2.03   1
  -2   6  -3   47.96    1.62   1
 -13  11  -1   29.31    1.72   1
  -4   8  -4    2.80    0.45   1
  -9  13  -1   43.55    2.23   1
 -11  11  -3   23.39    1.16   1
  -6  12  -2   15.32    0.96   1
  -6  10  -4  160.25    3.75   1
  -1   5  -2   64.94    1.68   1
 -11  12  -2    9.23    0.77   1
 -12  12  -1   14.86    0.98   1
 -10  13  -1    0.98    0.54   1
   0   3   0    0.89    0.19   1
  -2   8  -2  339.61    4.80   1
  -8  12  -3   19.69    1.59   1
  -9  12  -3    1.54    0.50   1
  -4  10  -3   14.47    1.31   1
  -8  11  -4   81.27    2.69   1
  -9  11  -4   37.53    1.95   1
  -4  11  -2   15.26    0.92   1
  -3   7  -4    0.43    0.42   1
  -7  12  -3  183.65    3.90   1
  -5  11  -3   44.70    2.06   1
  -1   7  -1   10.83    0.59   1
 -10  12  -3   12.48    0.84   1
  -8  13  -2    4.22    0.74   1
  -9  13  -2   73.80    2.90   1
  -7  11  -4    2.30    0.51   1
  -3  10  -2   32.25    1.72   1
  -2   7  -3  150.49    2.79   1
  -3   9  -3   12.32    0.79   1
 -10  11  -4   78.61    2.58   1
  -5  12  -2    0.94    0.47   1
  -5  10  -4    0.33    0.50   1
 -11  13  -1    4.00    0.61   1
  -4   9  -4   54.26    2.09   1
  -7  13  -2   19.67    1.10   1
 -12  11  -3   84.01    2.90   1
 -10  13  -2    4.40    0.62   1
  -1   6  -2    0.20    0.20   1
 -12  12  -2   41.28    2.77   1
 -13  10  -3    7.27    0.71   1
  -6  12  -3   25.61    1.90   1
   0   4   0  168.99    2.52   1
  -6  11  -4  102.16    2.87   1
 -11  12  -3    7.36    0.72   1
  -2   5  -4  178.98    3.06   1
  -1   3  -3    7.81    0.63   1
  -2   9  -2   84.18    2.28   1
  -6  13  -2   -0.28    0.57   1
  -3   8  -4   55.28    1.98   1
 -11  11  -4   37.53    2.04   1
  -5   9  -5   47.77    2.03   1
 -11  13  -2    9.23    0.74   1
  -8  12  -4    6.70    0.79   1
  -8  13  -3   22.33    1.14   1
  -9  13  -3    1.41    0.52   1
  -4  11  -3   29.86    1.65   1
  -9  12  -4    6.53    0.64   1
  -1   4  -3   34.68    1.27   1
  -2   8  -3   39.37    1.54   1
  -6  10  -5   20.04    1.67   1
  -1   8  -1  139.53    2.65   1
 -12  13  -1   32.10    1.82   1
  -5  12  -3   85.99    2.57   1
  -7  12  -4    2.04    0.48   1
   0   5   0    0.54    0.27   1
  -4  12  -2   67.15    2.40   1
  -7  13  -3    2.60    0.52   1
  -3  10  -3   18.92    1.44   1
  -4  10  -4  222.67    3.97   1
  -2   6  -4  438.49    5.60   1
  -1   7  -2    1.06    0.26   1
  -5  11  -4   13.83    0.89   1
  -3  11  -2  376.19    5.65   1
 -10  13  -3    6.18    0.69   1
 -10  12  -4   61.93    3.42   1
  -8  11  -5    0.35    0.45   1
  -8  14  -2   17.65    1.08   1
  -1   5  -3    2.05    0.29   1
  -9  14  -2    4.55    0.63   1
   0   3  -1  585.24    6.44   1
 -12  12  -3  108.49    3.36   1
  -7  11  -5  184.63    4.47   1
   0   2  -1    0.44    0.17   1
  -6  12  -4   79.15    2.58   1
  -3   9  -4  205.06    3.62   1
  -6  13  -3    1.72    0.49   1
  -7  14  -2    6.51    0.63   1
   0   4  -1    0.38    0.21   1
  -5  10  -5   60.30    2.33   1
 -10  14  -2   94.89    3.16   1
 -11  14  -1    7.89    0.72   1
  -2  10  -2    2.25    0.49   1
  -2   7  -4    7.90    0.60   1
 -11  13  -3    2.51    0.49   1
  -4   9  -5   23.88    1.48   1
  -2   9  -3    7.02    0.63   1
  -1   6  -3  294.77    4.10   1
 -11  12  -4   33.32    1.88   1
  -6  11  -5   10.66    0.85   1
  -8  13  -4    1.41    0.52   1
  -1   8  -2   20.50    1.23   1
  -4  12  -3  163.82    3.90   1
  -9  13  -4   14.92    0.99   1
  -4  11  -4    4.62    0.63   1
   0   5  -1  788.30    8.78   1
  -8  14  -3    4.63    0.72   1
  -3  11  -3   44.41    1.98   1
  -5  12  -4    1.00    0.42   1
  -7  13  -4   29.80    1.90   1
  -9  14  -3    9.63    0.75   1
  -5  13  -3    1.03    0.47   1
  -8  12  -5   76.71    2.84   1
 -11  14  -2    0.49    0.50   1
  -9  12  -5   38.99    1.94   1
  -7  14  -3   28.85    2.03   1
  -3  10  -4   80.91    2.42   1
 -10  13  -4    1.32    0.57   1
  -3   8  -5   30.62    1.70   1
  -2   8  -4    2.26    0.46   1
  -7  12  -5    9.53    0.86   1
  -1   7  -3   18.65    1.02   1
 -10  14  -3    1.69    0.59   1
  -5  11  -5    8.65    0.69   1
  -6  13  -4    3.36    0.55   1
  -4  10  -5   18.29    1.01   1
   0   6  -1    0.00    0.20   1
  -2  10  -3  121.61    2.90   1
  -6  14  -3   11.72    0.90   1
  -6  12  -5   -0.22    0.53   1
  -9  15  -2    1.25    0.69   1
  -1   9  -2  233.19    3.85   1
  -4  12  -4   29.78    1.93   1
  -3   9  -5   11.13    0.80   1
 -11  13  -4   14.57    0.96   1
  -2   9  -4   -0.04    0.28   1
  -4  13  -3  215.56    4.19   1
  -8  14  -4    2.12    0.58   1
  -1   8  -3   56.88    1.87   1
 -11  14  -3   16.26    0.89   1
   0   4  -2  429.64    5.18   1
  -3  12  -3    1.29    0.55   1
  -5  13  -4   77.12    2.68   1
  -3  11  -4    6.13    0.56   1
  -9  14  -4   61.32    3.42   1
  -1   5  -4   96.51    2.13   1
 -10  15  -2    1.71    0.63   1
  -8  13  -5   21.42    1.12   1
   0   3  -2    0.35    0.17   1
  -7  14  -4  106.89    2.94   1
   0   5  -2    0.28    0.25   1
   0   7  -1  353.71    4.75   1
  -9  13  -5    2.23    0.56   1
  -5  14  -3   34.87    1.97   1
  -7  13  -5   22.19    1.49   1
  -4  11  -5    0.80    0.43   1
  -5  12  -5    4.01    0.71   1
  -8  15  -3    1.08    0.53   1
  -2   7  -5    4.53    0.45   1
  -1   6  -4  132.98    2.65   1
  -9  15  -3   32.78    2.11   1
 -10  14  -4    1.59    0.56   1
  -7  15  -3   19.72    1.07   1
  -2  11  -3  810.88    9.91   1
   0   6  -2  562.96    6.76   1
  -6  14  -4   40.55    2.33   1
  -3  10  -5   13.63    0.86   1
  -1  10  -2   72.63    2.13   1
  -6  13  -5    3.59    0.56   1
  -1   9  -3    8.70    0.65   1
  -2  10  -4    3.94    0.58   1
 -10  13  -5    6.44    0.66   1
   0   2  -2  276.36    3.35   1
  -1   7  -4   86.15    2.16   1
 -10  15  -3    1.19    0.51   1
  -2   8  -5   99.68    2.53   1
  -6  15  -3   14.86    1.02   1
  -4  13  -4    1.49    0.60   1
  -5  11  -6    0.60    0.46   1
   0   7  -2   -0.24    0.33   1
  -3  12  -4   46.02    2.05   1
  -3  13  -3    4.39    0.68   1
  -4  12  -5   -0.01    0.42   1
  -4  14  -3   22.80    1.15   1
  -6  12  -6   31.98    1.94   1
  -5  14  -4   25.76    1.71   1
  -5  13  -5  104.12    2.87   1
  -8  14  -5    8.21    0.89   1
  -8  15  -4   22.71    1.16   1
  -1   8  -4  249.03    3.94   1
  -7  14  -5   50.35    2.35   1
  -7  15  -4   32.16    2.04   1
  -3  11  -5   51.15    2.13   1
  -9  15  -4   -0.25    0.53   1
  -2   9  -5  111.84    2.82   1
  -9  14  -5   44.97    3.11   1
  -1  10  -3  310.93    4.75   1
  -2  12  -3   45.37    1.99   1
  -2  11  -4   11.99    0.82   1
   0   5  -3  164.19    2.71   1
   0   8  -2  689.33    8.30   1
   0   4  -3    0.71    0.23   1
  -6  14  -5   30.16    2.01   1
  -8  13  -6   20.38    1.12   1
  -7  13  -6    7.40    0.90   1
  -6  15  -4   27.30    1.70   1
   0   6  -3    2.25    0.36   1
  -5  12  -6   74.68    2.60   1
  -4  11  -6   66.63    2.43   1
  -8  16  -3   35.24    2.82   1
 -10  15  -4    2.63    0.44   1
  -1   9  -4    1.90    0.36   1
  -7  16  -3  186.95    4.73   1
 -10  14  -5   15.91    0.92   1
  -4  14  -4   97.81    2.78   1
   0   3  -3    3.89    0.36   1
  -9  16  -3    1.77    0.53   1
  -3  13  -4   56.12    2.49   1
  -2  10  -5   21.95    1.03   1
  -4  13  -5   14.61    0.96   1
   0   7  -3    5.03    0.41   1
  -6  13  -6   48.37    2.12   1
  -3  10  -6  338.21    5.07   1
  -3  12  -5   43.50    2.13   1
  -5  14  -5   62.52    2.56   1
   0   9  -2    1.01    0.34   1
  -1  11  -3   78.06    2.43   1
  -5  15  -4   71.08    2.56   1
  -1   7  -5    0.66    0.43   1
  -2  12  -4   30.19    1.65   1
  -8  15  -5    5.99    0.84   1
   0   1  -2    0.43    0.13   1
  -7  15  -5    9.17    0.87   1
   0   8  -3   -0.03    0.25   1
  -1  10  -4    0.21    0.33   1
  -4  12  -6   32.28    1.85   1
  -5  13  -6   48.02    2.33   1
  -9  15  -5   18.69    0.93   1
  -8  16  -4    0.76    0.54   1
  -2  11  -5    1.39    0.42   1
  -7  16  -4    2.46    0.55   1
  -1   8  -5  134.07    2.93   1
  -8  14  -6   32.73    2.94   1
  -7  14  -6    0.21    0.54   1
  -6  15  -5   34.45    2.04   1
  -3  11  -6   24.73    1.87   1
   0   2  -3    1.29    0.25   1
  -9  16  -4    2.44    0.45   1
  -6  16  -4    3.63    0.70   1
  -6  14  -6   74.35    2.84   1
  -4  14  -5  157.80    3.62   1
   0   9  -3  471.10    6.14   1
  -3  14  -4   12.58    0.91   1
  -9  14  -6    5.36    0.64   1
  -3  13  -5   22.21    1.55   1
  -4  15  -4   34.26    2.02   1
   0   5  -4    0.07    0.37   1
   0   6  -4  749.78    9.02   1
  -1   9  -5  193.41    3.85   1
  -1  12  -3   73.48    2.46   1
  -1  11  -4  120.32    2.89   1
   0   7  -4    0.19    0.27   1
  -2  13  -4    2.28    0.49   1
  -5  15  -5   20.28    1.10   1
   0   4  -4  923.84   10.38   1
  -4  13  -6   42.97    2.38   1
  -2  12  -5   50.34    2.13   1
  -2  10  -6   30.83    1.80   1
  -5  14  -6   39.24    2.16   1
  -3  12  -6   67.69    2.48   1
  -5  16  -4   41.64    2.22   1
   0   8  -4  455.55    5.98   1
   0  10  -3   -0.22    0.28   1
  -1  10  -5  136.15    3.11   1
  -7  16  -5   15.98    1.04   1
  -8  16  -5    4.12    0.66   1
   1   6  -1  368.05    4.89   1
   1   5  -1  110.19    1.97   1
  -7  15  -6   55.02    3.25   1
  -8  15  -6   31.49    1.69   1
   0   9  -4   -0.13    0.28   1
  -1  12  -4    2.77    0.58   1
  -3  14  -5    0.22    0.45   1
  -6  16  -5   88.42    2.69   1
  -4  15  -5   18.18    1.05   1
  -6  15  -6    9.82    0.86   1
  -2  11  -6    1.54    0.46   1
  -3  15  -4   32.20    2.31   1
  -8  17  -4   -0.52    0.55   1
  -7  17  -4    9.11    0.72   1
  -4  14  -6   13.43    0.96   1
   1   6  -2    0.58    0.23   1
  -2  13  -5   26.24    1.65   1
  -1  11  -5  181.04    3.59   1
  -2  14  -4    0.21    0.47   1
   1   4  -1  162.63    2.35   1
  -4  16  -4    6.01    0.84   1
  -3  13  -6    1.04    0.46   1
   0  11  -3   43.32    1.84   1
   1   7  -2    1.58    0.28   1
   1   5  -2   70.15    1.63   1
  -6  17  -4   16.71    1.03   1
  -5  16  -5   22.17    1.13   1
   0  10  -4    0.10    0.32   1
  -5  15  -6   22.50    1.18   1
   1   4   0    0.39    0.23   1
   0   6  -5    0.29    0.35   1
  -6  14  -7    8.92    0.73   1
  -1   9  -6   20.72    1.45   1
   1   8  -2   20.83    1.14   1
   0   7  -5  649.34    8.37   1
  -2  12  -6    0.67    0.55   1
  -1  13  -4    4.09    0.64   1
   1   4  -2   35.55    1.07   1
   0   8  -5    0.20    0.29   1
  -4  13  -7    4.76    0.75   1
  -5  17  -4    2.22    0.55   1
  -1  12  -5   -0.09    0.39   1
  -5  14  -7   18.99    1.68   1
  -3  15  -5   25.04    1.95   1
   1   6  -3  302.86    4.34   1
   1   7  -3   20.38    1.17   1
  -3  12  -7    8.79    0.69   1
  -1  10  -6    2.95    0.49   1
  -7  16  -6  129.13    3.99   1
   0  11  -4   -0.06    0.32   1
   0   9  -5    9.64    0.73   1
  -3  14  -6   23.18    1.88   1
  -4  16  -5    0.88    0.50   1
  -2  14  -5   67.57    2.45   1
  -8  16  -6    0.72    0.59   1
  -7  17  -5    2.60    0.57   1
  -4  15  -6    7.10    0.78   1
   1   5  -3    1.54    0.26   1
   1   8  -3   57.67    1.89   1
  -6  16  -6    2.55    0.60   1
  -2  15  -4    0.08    0.48   1
   1   3  -1   56.40    1.18   1
  -6  17  -5   21.38    1.11   1
  -2  13  -6   12.05    0.91   1
   0  10  -5    0.63    0.35   1
  -1  11  -6  210.26    3.85   1
  -7  15  -7   62.83    2.90   1
   1   9  -3    9.50    0.69   1
  -6  15  -7    1.47    0.57   1
  -5  16  -6    1.29    0.55   1
  -4  14  -7    9.75    0.84   1
  -1  13  -5  123.20    3.13   1
   1   4  -3   35.97    1.28   1
  -1  14  -4  267.91    4.92   1
  -3  13  -7   20.90    1.13   1
   1   3  -2   72.57    1.46   1
   0  12  -4    3.42    0.63   1
  -5  17  -5    1.98    0.60   1
  -7  18  -4   12.66    0.79   1
   1   7  -4   90.66    2.21   1
   1   3   0    0.33    0.19   1
  -5  15  -7   22.02    1.80   1
   1   6  -4  133.69    2.65   1
   1  10  -3  309.78    4.66   1
   0  11  -5    1.85    0.40   1
  -3  15  -6  116.47    3.35   1
   1   8  -4  240.26    3.91   1
  -3  16  -5   14.33    1.00   1
  -1  12  -6  227.54    4.36   1
  -2  15  -5  170.23    3.62   1
  -2  12  -7   25.79    1.82   1
  -2  14  -6    0.37    0.47   1
  -4  16  -6    3.58    0.72   1
   0   8  -6  311.10    4.70   1
   1   5  -4   93.63    2.10   1
   1   9  -4    2.30    0.46   1
  -4  17  -5   62.79    3.03   1
  -7  17  -6   46.03    2.75   1
   0   9  -6    0.84    0.37   1
  -3  14  -7  184.03    3.71   1
   0  13  -4    0.60    0.45   1
  -1  14  -5   45.24    2.30   1
  -6  17  -6   -0.68    0.39   1
   1  11  -3   72.12    2.33   1
  -4  15  -7   15.39    0.97   1
   1   3  -3    8.15    0.45   1
   0  12  -5    0.77    0.43   1
   1  10  -4    0.44    0.33   1
  -7  16  -7   75.22    3.07   1
   0  10  -6   45.64    2.08   1
  -1  13  -6   25.19    1.70   1
  -6  16  -7   -1.28    0.66   1
  -2  13  -7   29.04    1.90   1
   1   4  -4  257.93    3.65   1
  -5  17  -6  140.70    4.17   1
  -6  18  -5    5.01    0.65   1
  -1  11  -7   19.73    1.07   1
  -3  16  -6   -0.04    0.47   1
   1   7  -5    0.13    0.45   1
  -5  16  -7   25.69    1.74   1
   1   8  -5  136.06    3.03   1
  -2  15  -6    0.32    0.46   1
  -2  16  -5   60.15    2.54   1
   1  11  -4  112.97    2.91   1
   0  11  -6   -0.03    0.39   1
   1   6  -5    0.03    0.26   1
   1   9  -5  196.17    3.62   1
  -3  17  -5   21.26    1.69   1
  -5  18  -5    0.12    0.48   1
   0  13  -5  145.10    3.42   1
  -3  15  -7    1.19    0.59   1
   1   2  -1   14.37    0.59   1
   1   2  -2  160.68    2.24   1
  -1  15  -5   25.38    1.83   1
  -1  12  -7    0.81    0.46   1
  -4  17  -6    0.93    0.57   1
  -1  14  -6   45.51    2.28   1
  -2  14  -7   89.37    2.73   1
   1  10  -5  144.56    3.19   1
  -4  16  -7   84.97    2.67   1
   0  12  -6   25.35    1.78   1
   1  12  -4    3.18    0.49   1
   2   7  -2   60.68    1.86   1
   2   8  -2  332.39    5.05   1
   1   3  -4    9.39    0.56   1
  -4  18  -5   71.11    3.17   1
   1  11  -5  177.66    3.63   1
   2   6  -2   22.18    1.16   1
  -1  13  -7    1.90    0.59   1
   0  14  -5    0.47    0.63   1
   2   8  -3   37.83    1.58   1
  -3  14  -8   48.62    2.30   1
  -2  16  -6    7.46    0.68   1
   2   7  -3  152.74    2.91   1
   1   2  -3  154.51    2.28   1
   2   6  -1   78.42    1.79   1
   0  10  -7    0.46    0.43   1
   2   9  -3    8.32    0.67   1
  -3  17  -6   66.08    2.97   1
  -4  15  -8   18.90    1.10   1
   0  13  -6    0.58    0.46   1
  -5  17  -7   15.29    0.84   1
  -2  17  -5   42.87    2.63   1
   2   6  -3   48.19    1.50   1
  -3  16  -7   -0.17    0.54   1
  -2  15  -7   23.40    1.84   1
   1   8  -6    4.24    0.60   1
  -5  18  -6    7.31    0.72   1
  -1  15  -6   78.30    2.69   1
   1  13  -4    2.43    0.49   1
  -1  16  -5   32.92    2.05   1
   1   9  -6   20.29    1.41   1
   1  12  -5   -0.08    0.39   1
   0  11  -7   10.82    0.85   1
   2   5  -2   49.67    1.44   1
   2  10  -3  121.23    2.88   1
   1  10  -6    3.02    0.47   1
   2   8  -4    1.81    0.33   1
   2   5  -1  152.35    2.46   1
   2   7  -4    7.63    0.65   1
  -1  14  -7   -0.95    0.44   1
   2   9  -4   -0.24    0.27   1
  -4  17  -7    5.28    0.60   1
   2   5  -3   11.12    0.59   1
  -4  18  -6   13.19    0.95   1
  -5  16  -8    0.36    0.57   1
   0  15  -5  125.11    3.39   1
   0  12  -7    1.02    0.48   1
   1  11  -6  210.51    3.97   1
  -3  15  -8    1.87    0.54   1
   0  14  -6    1.94    0.50   1
   2   6  -4  435.86    5.62   1
   1   2   0    0.09    0.10   1
   2  10  -4    3.35    0.45   1
  -2  14  -8   71.08    2.76   1
   1  13  -5  123.87    3.14   1
  -2  17  -6    1.77    0.56   1
  -2  16  -7   34.66    2.12   1
  -1  16  -6  120.01    3.37   1
  -4  16  -8   71.80    3.32   1
   2  11  -4   10.63    0.78   1
   1  12  -6  235.92    4.26   1
   2   4  -2  321.90    4.12   1
   0  13  -7    2.45    0.60   1
   2   8  -5   96.33    2.47   1
  -3  17  -7   49.85    2.17   1
  -1  15  -7    3.12    0.57   1
   2   5  -4  185.91    3.11   1
   2   9  -5  119.01    2.78   1
  -1  13  -8   34.28    2.07   1
   2   7  -5    7.60    0.64   1
  -3  18  -6   47.56    2.07   1
   2   4  -3   36.69    1.24   1
   2  10  -5   19.90    0.98   1
   2   4  -1   60.23    1.44   1
   1  14  -5   41.46    2.18   1
   0  15  -6    1.52    0.52   1
  -2  15  -8    7.72    0.83   1
   2  12  -4   30.67    1.70   1
   1  10  -7    3.08    0.69   1
   2   6  -5   97.00    2.50   1
   1  13  -6   26.56    1.25   1
  -3  16  -8    9.45    0.91   1
   2  11  -5    1.04    0.41   1
   0  14  -7   -0.12    0.45   1
  -4  18  -7    3.72    0.55   1
  -1  14  -8  147.02    3.88   1
   1  11  -7   20.63    1.07   1
   2   4  -4  188.03    3.03   1
  -2  17  -7   37.16    1.77   1
  -1  17  -6    9.33    0.87   1
  -1  16  -7  130.02    3.25   1
   1   1  -2  194.42    2.51   1
   2  12  -5   49.75    2.22   1
   2   5  -5  756.96    9.26   1
  -4  17  -8   17.91    1.06   1
   2   9  -6   -0.09    0.36   1
  -2  18  -6    6.19    0.83   1
   1  12  -7    0.15    0.46   1
   2   8  -6   22.83    1.57   1
   1  15  -5   26.24    1.91   1
   1  14  -6   51.65    2.18   1
   2  10  -6   33.11    1.80   1
   0  16  -6    0.25    0.65   1
   1   1  -3    3.68    0.26   1
   2   7  -6    2.98    0.44   1
  -3  18  -7   54.04    3.03   1
  -2  16  -8    5.69    0.87   1
   0  15  -7  135.16    3.54   1
   2   3  -2  201.31    2.87   1
   0  13  -8   -0.46    0.50   1
   2  11  -6    2.21    0.45   1
  -1  15  -8    9.58    0.96   1
   2   3  -3   16.32    1.05   1
   2  13  -5   23.56    1.64   1
   3   9  -3   12.44    0.78   1
   3   8  -3   95.37    2.48   1
   1  13  -7    2.36    0.53   1
  -3  17  -8    2.09    0.60   1
   2   4   0    9.76    0.40   1
  -3  19  -6    0.70    0.56   1
   3   7  -2   12.40    0.69   1
   3   7  -3    4.48    0.42   1
   2  12  -6   -0.12    0.43   1
   1   1  -1    6.64    0.44   1
   3   9  -4  190.14    3.90   1
   3   8  -4   54.49    1.88   1
   1  15  -6   80.77    2.76   1
   3  10  -4   89.00    2.66   1
   0  14  -8   16.31    0.98   1
  -1  17  -7    5.86    0.87   1
   2   3  -1   79.35    1.49   1
   2   3  -4   53.69    1.65   1
   3   7  -4    1.22    0.33   1
   1  14  -7    1.07    0.52   1
   3   6  -3  295.70    4.20   1
   2  14  -5   72.29    2.59   1
   3   6  -2  127.73    2.49   1
  -1  18  -6    8.69    0.89   1
  -2  18  -7   16.11    0.88   1
   0  16  -7   -0.10    0.48   1
   0  17  -6   -0.03    0.73   1
   3  11  -4   12.40    0.86   1
   2  13  -6   11.92    0.91   1
   2   9  -7    0.66    0.45   1
  -1  16  -8    3.27    0.81   1
   2  10  -7   26.99    1.62   1
  -2  17  -8   10.11    0.76   1
   3   9  -5   10.16    0.77   1
   1  12  -8   30.45    1.96   1
   3   8  -5   29.37    1.50   1
   3  10  -5   12.31    0.84   1
   3   6  -4  128.67    2.67   1
   2  11  -7    7.52    0.67   1
  -2  19  -6    0.35    0.57   1
   0  15  -8   -0.31    0.48   1
   1  16  -6  121.44    3.09   1
   3   7  -5    5.12    0.55   1
   3  11  -5   54.82    2.05   1
   1  15  -7    1.65    0.41   1
   2  12  -7   26.19    1.71   1
   3   5  -3   21.86    1.19   1
   1  13  -8   39.34    2.06   1
   2  14  -6    0.95    0.56   1
   3   5  -2    2.63    0.31   1
   3  12  -5   44.97    2.22   1
   3   6  -5   74.25    2.19   1
   3   5  -4  280.96    4.12   1
  -2  16  -9    4.73    0.66   1
  -1  15  -9    5.38    0.74   1
   2  13  -7   30.96    2.07   1
   3   9  -6   64.38    2.33   1
   3  10  -6  337.34    5.21   1
  -1  18  -7   27.00    1.21   1
   0  17  -7   34.68    2.04   1
   2   2  -3   23.31    1.06   1
   3   8  -6    0.61    0.51   1
  -1  17  -8    2.65    0.61   1
   1  14  -8  151.78    3.37   1
   3  11  -6   26.96    1.68   1
   2   2  -2  135.51    2.07   1
   0  18  -6    3.22    0.68   1
   0  16  -8  120.19    3.47   1
   3  13  -5   22.00    1.17   1
   2  15  -6    1.14    0.53   1
   3   7  -6  273.63    4.42   1
   3   5  -1   56.24    1.59   1
   1  16  -7  132.35    3.86   1
   3  12  -6   63.88    2.65   1
   1  17  -6    8.95    0.88   1
   2  14  -7   89.40    2.83   1
   3   5  -5   25.67    1.38   1
   3   4  -3  161.74    2.77   1
   2  11  -8    1.01    0.49   1
   2   3   0   32.17    1.07   1
   1  15  -8    8.29    0.86   1
   3   6  -6   92.43    2.59   1
   3   4  -2   47.98    1.47   1
   2  12  -8   16.02    1.02   1
   3   4  -4   52.37    1.70   1
  -1  16  -9    2.08    0.56   1
   3  14  -5    0.54    0.51   1
   3  13  -6    0.60    0.48   1
   0  15  -9    5.88    0.86   1
   0  18  -7    1.18    0.54   1
   2  16  -6   10.77    1.00   1
   0  17  -8    0.56    0.50   1
   4   9  -3  411.77    6.23   1
   3   9  -7    2.12    0.47   1
   3  10  -7    7.48    0.79   1
   2  13  -8    4.78    0.62   1
   2  15  -7   17.58    0.97   1
   4  10  -4  220.78    3.98   1
   4   8  -3   35.08    1.60   1
   3  11  -7   22.76    1.14   1
   4   9  -4   57.17    2.04   1
  -6  10   1   15.98    1.38   1
 -11  10   2   34.41    1.90   1
 -12   9   3   14.66    1.41   1
  -2   6   2   21.16    1.11   1
 -13   9   1    4.36    0.61   1
 -10  10   3  113.45    3.78   1
  -3   7   3    3.90    0.42   1
 -11   9   4    2.48    0.78   1
  -4   9   0   11.87    0.76   1
  -3   8   0    0.50    0.29   1
  -4   9   1   54.75    2.04   1
  -3   8   1  318.65    4.68   1
 -13   9   2    1.23    0.56   1
  -9  11   1   37.10    2.12   1
 -12  10   1   15.02    1.07   1
  -1   4   2   35.12    1.24   1
  -8  11   1   -0.24    0.43   1
 -11  10   3   55.54    3.30   1
  -5  10   1  235.79    4.31   1
 -10  11   1    1.46    0.54   1
 -12  10   2   25.66    1.95   1
  -9  11   2   34.23    2.07   1
  -7  11   1   77.93    2.64   1
  -3   8   2  116.05    2.67   1
 -13   8   4    5.04    0.65   1
 -10  11   2   26.14    1.84   1
  -2   7   0    2.27    0.32   1
 -10  10   4    9.16    0.98   1
 -12   9   4   64.94    3.07   1
  -2   7   1  292.06    4.29   1
  -2   6   3   46.75    1.72   1
 -13   9   3    0.49    0.52   1
  -1   5   0    0.30    0.16   1
 -11  11   1   36.95    1.93   1
  -1   5   1  114.57    2.04   1
  -6  11   1  137.18    3.18   1
 -12  10   3    0.25    0.55   1
 -11  11   2   15.19    1.03   1
 -10  11   3   14.15    0.91   1
 -11  10   4    0.86    0.75   1
  -2   7   2   63.89    1.82   1
  -3   8   3  101.91    2.55   1
 -13  10   1    2.35    0.54   1
  -4  10   1   10.89    0.77   1
 -13  10   2    1.99    0.54   1
  -3   9   0   -0.05    0.31   1
  -3   9   1    2.55    0.38   1
  -1   5   2   66.74    1.60   1
  -9  12   1   23.29    1.21   1
 -11  11   3   21.45    1.20   1
  -8  12   1   -0.38    0.59   1
 -12  11   1   47.69    2.52   1
  -5  11   1    5.37    0.68   1
 -10  12   1   64.70    2.86   1
  -9  12   2   39.93    2.38   1
 -13   9   4    1.04    0.53   1
  -3   9   2   34.49    1.51   1
 -12  11   2   17.38    1.06   1
  -7  12   1  257.90    4.41   1
 -10  11   4   79.38    3.12   1
 -12  10   4   44.85    2.70   1
 -10  12   2   46.26    2.28   1
  -2   7   3  156.53    3.09   1
 -13  10   3    7.61    0.69   1
  -2   8   0  161.76    2.96   1
  -2   8   1   20.83    1.18   1
  -1   6   0    0.17    0.30   1
 -11  12   1    7.15    0.87   1
  -1   6   1  378.51    4.82   1
 -12  11   3   79.80    3.31   1
  -6  12   1  143.33    3.45   1
 -10  12   3   13.79    1.01   1
  -2   8   2  354.36    5.00   1
 -11  11   4   39.24    2.96   1
  -3   9   3   11.16    0.77   1
 -11  12   2   12.11    1.02   1
  -1   5   3    0.94    0.79   1
  -1   6   2    0.78    0.29   1
  -4  11   1  282.44    4.67   1
  -3  10   1   35.33    1.61   1
 -11  12   3   11.91    0.98   1
  -9  13   1   51.10    2.28   1
  -4  11   2   13.46    0.87   1
  -8  13   1   17.28    1.07   1
  -3  10   2   32.18    1.50   1
 -12  12   1   10.61    0.79   1
  -5  12   1  175.21    3.76   1
  -9  13   2   82.12    2.83   1
  -2   8   3   41.60    1.68   1
  -8  13   2    2.20    0.55   1
 -10  13   1    1.50    0.55   1
 -10  12   4   73.30    3.45   1
 -12  11   4    0.40    0.48   1
 -12  12   2   42.94    2.66   1
  -7  13   1    3.14    0.69   1
   0   2   1    0.51    0.15   1
   0   2   0  225.23    2.66   1
  -2   9   1  449.54    6.31   1
 -10  13   2    3.72    0.65   1
  -2   9   0   10.23    0.70   1
  -1   7   1   10.59    0.61   1
  -1   7   0    0.76    0.34   1
  -9  13   3    2.58    0.71   1
  -1   6   3  309.40    4.30   1
  -2   9   2   83.67    2.23   1
  -3  10   3   23.29    1.45   1
 -12  12   3  105.98    3.61   1
  -6  13   1   15.86    1.04   1
 -11  12   4   32.20    2.77   1
  -1   7   2    3.19    0.41   1
 -10  13   3    5.28    0.68   1
   0   3   1  592.88    6.57   1
 -11  13   2   11.34    0.95   1
   0   3   0    0.72    0.15   1
  -4  12   1   18.19    1.01   1
  -3  11   1   73.49    2.24   1
  -2   9   3    8.46    0.66   1
  -4  12   2   76.14    2.53   1
  -3  11   2  424.31    5.95   1
 -11  13   3    2.38    0.52   1
  -5  13   1   18.19    1.40   1
  -3  10   4   78.28    2.92   1
  -1   7   3   19.29    1.05   1
   0   2   2  249.80    3.13   1
  -8  14   2   13.83    1.06   1
   0   4   1    0.12    0.15   1
  -1   8   1  148.02    2.73   1
  -9  14   2    6.71    0.88   1
  -2  10   1    0.50    0.38   1
 -10  13   4    1.63    0.75   1
   0   3   2    0.22    0.19   1
  -1   8   0    1.25    0.44   1
   0   4   0  174.51    2.44   1
  -3  11   3   47.90    2.05   1
  -2  10   2    1.28    0.42   1
  -1   8   2   23.67    1.20   1
 -10  14   2  104.90    3.65   1
  -9  14   3   10.76    0.93   1
   0   4   2  431.55    5.26   1
  -6  14   1  205.58    4.30   1
 -11  13   4   13.26    0.94   1
   0   5   1  796.74    8.82   1
 -10  14   3    4.08    0.81   1
  -2  10   3  134.21    2.97   1
  -3  12   1   23.23    1.54   1
  -4  13   1   -0.09    0.59   1
  -1   8   3   60.74    1.91   1
   0   5   0    0.79    0.25   1
 -11  14   2    0.97    0.52   1
  -3  12   2    4.29    0.50   1
  -4  13   2   60.15    2.40   1
  -3  11   4    7.11    0.63   1
   0   5   2    0.01    0.22   1
  -1   9   1    2.84    0.48   1
   0   3  -1  568.91    6.17   1
 -10  13   5    5.10    0.66   1
  -2  11   1    0.52    0.36   1
  -1   9   0    0.34    0.39   1
  -1   9   2  245.45    4.17   1
  -5  14   1   20.54    1.12   1
 -11  14   3   15.67    0.89   1
  -2  11   2    8.80    0.69   1
  -3  12   3    0.56    0.39   1
   0   6   1   -0.23    0.23   1
  -8  15   2   12.46    1.03   1
   0   4  -1   -0.13    0.23   1
 -10  14   4    0.13    0.54   1
  -9  15   2    0.70    0.79   1
  -2  10   4    2.02    0.41   1
  -7  15   2   12.38    0.93   1
   0   6   0  487.02    5.88   1
   0   6   2  569.24    6.81   1
  -1   9   3    9.06    0.66   1
  -2  11   3  879.29   10.64   1
  -9  15   3   30.10    3.12   1
   0   5  -1  778.81    8.62   1
 -10  15   2    1.81    0.55   1
   0   5   3  155.62    2.50   1
  -3  13   1   30.10    1.87   1
  -1  10   1    0.74    0.31   1
   0   7   1  361.46    4.71   1
  -3  13   2   -0.05    0.39   1
  -4  14   1  124.92    3.33   1
 -10  15   3    2.01    0.56   1
  -4  14   2  105.60    3.04   1
  -1  10   2   78.67    2.17   1
   0   7   2    0.44    0.35   1
   0   6   3    0.80    0.35   1
   0   7   0    0.04    0.21   1
  -2  12   1    0.69    0.50   1
  -2  12   2   42.91    1.96   1
  -3  13   3    3.12    0.61   1
  -2  11   4   10.46    0.83   1
  -9  15   4    0.24    0.70   1
 -10  14   5   15.62    0.91   1
  -5  15   2   21.93    1.78   1
  -1  10   3  320.24    4.91   1
  -2  12   3   50.35    2.16   1
   0   8   1    0.53    0.33   1
   0   7   3    8.57    0.91   1
 -10  15   4    4.23    0.64   1
  -8  16   2   20.18    1.18   1
   0   8   2  724.91    8.59   1
  -7  16   2   16.46    1.07   1
  -1  11   1   14.78    0.83   1
   0   8   0   55.16    1.70   1
  -9  16   2   -0.03    0.50   1
  -1  11   2   77.79    2.28   1
  -8  16   3   36.14    2.09   1
  -3  14   1    9.49    0.85   1
  -3  14   2    1.56    0.44   1
  -6  16   2   13.85    1.72   1
  -9  16   3    2.32    0.61   1
  -1  10   4    0.82    0.37   1
  -4  15   2   12.64    0.98   1
  -2  12   4   28.91    1.87   1
  -2  13   1   39.67    2.06   1
   0   8   3    0.18    0.35   1
  -2  13   2   16.14    0.97   1
  -1  11   3   81.41    2.33   1
   0   9   1    3.47    0.39   1
  -3  14   3   11.95    0.90   1
   0   9   2    1.14    0.41   1
  -2  13   3   26.62    1.60   1
   0   9   0    1.34    0.41   1
  -5  16   2   12.42    1.00   1
  -9  16   4    2.21    0.46   1
  -1  12   1   29.19    1.80   1
  -1  12   2   37.92    1.98   1
   0   9   3  481.36    6.22   1
  -1  11   4  126.09    3.30   1
   0  10   1    0.75    0.40   1
   0  10   2  193.44    3.43   1
  -2  13   4    4.17    0.74   1
  -1  12   3   80.35    2.65   1
  -3  15   2    0.09    0.44   1
  -8  17   2   16.61    0.90   1
  -7  17   2    8.41    0.91   1
  -2  14   1   11.81    0.89   1
  -2  14   2  264.14    4.70   1
   0  10   0  920.99   10.94   1
  -4  16   2  148.64    3.54   1
  -3  15   3   23.97    1.19   1
  -8  17   3    3.28    0.61   1
  -6  17   2    9.68    0.86   1
   0  10   3    0.44    0.41   1
  -2  14   3    0.10    0.44   1
  -1  13   2   64.97    2.32   1
  -1  12   4    2.10    0.47   1
  -1  13   1   41.36    1.97   1
   0  11   1   74.99    2.28   1
   0  11   2   -0.08    0.31   1
  -5  17   2    2.50    0.60   1
   1   5   1  116.06    2.05   1
   1   6   1  386.06    4.92   1
  -1  13   3   16.74    1.54   1
   1   5   2   66.86    1.60   1
   1   6   2    0.14    0.21   1
  -2  14   4    0.15    0.49   1
   0  11   3   43.71    1.94   1
   1   7   1   11.24    0.62   1
   1   7   2    2.38    0.31   1
   1   4   1  165.36    2.48   1
   1   4   2   33.94    1.13   1
  -3  16   2   90.64    3.19   1
  -2  15   2    8.72    0.71   1
   1   6   0    0.54    0.21   1
   1   5   0    0.45    0.18   1
   1   8   1  143.62    2.78   1
   1   8   2   22.65    1.16   1
   1   6   3  298.10    4.05   1
  -2  15   3   36.24    2.06   1
   1   7   0    0.49    0.24   1
  -1  13   4    3.28    0.66   1
   1   7   3   21.50    1.38   1
   0  12   2   83.49    2.37   1
  -4  17   2    0.60    0.48   1
   0  12   1    0.37    0.35   1
  -1  14   2    0.66    0.42   1
  -1  14   1   64.06    2.50   1
   0  11   4    0.21    0.58   1
  -7  18   2    4.47    0.66   1
   1   8   0    0.65    0.28   1
   1   4   0    0.39    0.19   1
   1   8   3   57.55    1.82   1
   0  12   3    0.22    0.35   1
  -1  14   3    8.95    0.79   1
   1   9   1    2.02    0.42   1
   1   9   2  241.87    3.88   1
  -6  18   2    0.20    0.57   1
  -7  18   3   -0.17    0.56   1
  -2  15   4   -0.05    0.56   1
   1   3   1   58.15    1.18   1
   1   3   2   69.41    1.34   1
   1   9   3   10.85    0.71   1
   1   9   0    0.36    0.28   1
  -5  18   2    9.09    0.91   1
   1  10   2   74.38    2.16   1
  -2  16   2    6.09    0.78   1
   0  13   2    0.51    0.38   1
  -1  14   4  293.73    4.82   1
   1  10   1    0.45    0.31   1
   0  12   4    5.09    0.69   1
   0  13   1   28.83    1.86   1
  -3  17   2    0.29    0.68   1
  -2  16   3   24.37    2.18   1
   0  13   3  328.61    5.26   1
  -1  15   2   13.46    0.95   1
   1   5  -1  118.00    1.95   1
   1  10   3  317.94    4.88   1
  -1  15   1    8.91    0.70   1
   1  10   0   -0.20    0.28   1
  -1  15   3    1.84    0.50   1
   1  11   2   75.31    2.28   1
  -4  18   2   68.15    2.58   1
   1   3   0    0.85    0.18   1
   1  11   1   14.48    0.84   1
   0  13   4    0.49    0.41   1
   1  11   3   81.88    2.46   1
   0  14   2   13.95    0.91   1
  -1  15   4    6.26    0.65   1
   0  14   1    0.05    0.44   1
   0  14   3    0.57    0.43   1
   1   4  -1  172.57    2.41   1
  -2  17   2   14.02    1.03   1
   1  12   2   41.20    1.94   1
  -6  19   2    0.54    0.56   1
   1  12   1   26.47    1.55   1
  -1  16   2    3.60    0.64   1
  -2  17   3   23.06    1.83   1
  -3  18   2    1.80    0.61   1
  -6  19   3    2.64    0.65   1
   1  11   4  122.64    2.85   1
   1  12   3   77.30    2.42   1
  -1  16   3    1.87    0.54   1
  -5  19   2   27.72    1.98   1
   0  14   4   71.93    2.60   1
   1   2   2  159.13    2.27   1
   1   2   1   13.60    0.56   1
  -1  15   5   29.72    1.91   1
   0  15   2    0.07    0.47   1
   0  15   1    0.92    0.49   1
   1  13   2   66.70    2.30   1
  -1  16   4   96.88    3.41   1
   0  15   3   22.78    1.14   1
   1  12   4    2.04    0.48   1
   1  13   1   36.65    1.90   1
   2   7   2   64.74    1.86   1
   2   8   2  359.76    4.97   1
   1  13   3   18.07    1.38   1
   2   7   1  296.47    4.16   1
   2   8   1   20.53    1.22   1
  -4  19   2   19.69    1.13   1
   2   9   2   86.69    2.29   1
   2   6   2   23.26    1.14   1
   2   9   1  448.51    5.91   1
   2   8   3   42.75    1.74   1
   2   7   3  157.49    2.90   1
   2   6   1   82.93    1.86   1
  -2  18   2  139.62    4.14   1
  -1  17   2   23.33    1.24   1
   0  15   4    0.19    0.45   1
   2   9   3    7.26    0.65   1
   2  10   2    1.41    0.35   1
  -2  18   3   12.28    0.95   1
  -1  17   3    1.68    0.54   1
   2  10   1    0.87    0.34   1
   1  13   4    3.51    0.66   1
   2   6   3   47.90    1.56   1
   2   8   0  159.66    2.98   1
   1  14   2    0.89    0.43   1
  -1  16   5   40.84    2.25   1
   2   7   0    2.57    0.34   1
   2  10   3  126.29    2.94   1
   2   9   0   11.14    0.72   1
   0  16   2  262.94    4.55   1
   2   5   2   49.84    1.48   1
   1  14   1   65.55    2.54   1
   1  14   3    8.18    0.77   1
   1   3  -1   60.62    1.30   1
  -3  19   2    7.23    0.88   1
   2  11   2   10.36    0.74   1
   0  16   3    0.42    0.49   1
   2   5   1  155.61    2.51   1
   2   6   0   26.25    1.14   1
  -1  17   4   56.53    2.61   1
   2  11   1    0.04    0.31   1
   1   2   0    0.53    0.19   1
   2  10   0   52.77    1.94   1
   2  11   3  871.01   10.64   1
   1  14   4  292.40    4.82   1
   0  16   4   87.86    2.94   1
   2  12   2   41.23    2.05   1
   1  15   2   10.72    0.89   1
   2  12   1    0.83    0.41   1
   2  12   3   46.78    2.42   1
  -1  18   2    7.55    0.82   1
   2   5   0   50.53    1.50   1
   1  15   3    1.28    0.47   1
   1  15   1   13.55    0.95   1
   2  11   4    9.44    0.68   1
  -1  18   3   10.40    0.92   1
   2   4   2  331.10    4.13   1
  -2  19   2   42.78    2.27   1
   0  17   2    0.42    0.69   1
  -2  19   3    1.88    0.58   1
   2   4   1   66.76    1.52   1
   0  17   3   24.66    1.22   1
   2  13   2   16.76    0.98   1
   0  16   5    0.84    0.51   1
   2  12   4   34.55    1.85   1
   1  15   4    7.93    0.80   1
   2  13   1   44.34    2.15   1
   2  13   3   29.03    1.96   1
   0  17   4   -0.21    0.55   1
   1  16   2    4.66    0.79   1
   1  16   3    3.96    0.59   1
   2  14   2  263.22    4.74   1
   2  13   4    3.16    0.74   1
   2  14   3    1.71    0.60   1
   2  14   1    9.99    0.89   1
   2   4   0   24.20    1.00   1
  -1  19   2   44.99    3.26   1
   0  18   2    2.53    0.54   1
   1  16   4   99.26    3.03   1
   3   9   2   31.06    1.52   1
  -1  19   3    1.68    0.71   1
   0  18   3    0.14    0.53   1
   3   8   2  115.48    2.54   1
   3  10   2   34.02    1.66   1
   0  17   5  106.03    2.98   1
   2   5  -1  163.97    2.48   1
   3   9   1    2.79    0.38   1
   2  14   4    0.14    0.68   1
   3   9   3   11.71    0.77   1
   3   8   1  327.18    4.68   1
   3  10   1   37.45    1.93   1
   3   8   3   93.54    2.45   1
   3  10   3   23.25    1.56   1
   2   3   2  208.53    3.07   1
   3   7   2   13.39    0.71   1
   3  11   2  407.70    6.05   1
   2  15   2   11.86    0.93   1
   1  17   2   24.21    1.28   1
  -2  20   2    1.10    0.59   1
   0  18   4  188.73    4.60   1
   2  15   3   37.07    1.92   1
  -2  20   3    1.77    0.58   1
   1  17   3    0.16    0.51   1
   3  11   1   70.61    2.31   1
   3  11   3   45.92    1.84   1
   3   7   1   66.20    1.85   1
   2  15   1    2.49    0.73   1
   3   7   3    4.66    0.43   1
   3  12   2    3.10    0.48   1
   2   3   1   82.48    1.56   1
   1  16   5   32.73    2.33   1
   3   9   0    0.50    0.36   1
   3  10   0   -0.15    0.33   1
   3   8   0    0.78    0.35   1
   3  12   3    0.62    0.40   1
   3   6   2  133.35    2.60   1
   3  12   1   23.89    1.11   1
   1  17   4   54.45    2.57   1
   2  15   4   -0.42    0.51   1
   3  11   4    6.72    0.62   1
   3   6   1    1.63    0.36   1
   3   6   3  315.12    4.64   1
   3  13   2    0.59    0.43   1
   3   7   0   -0.09    0.33   1
   1   1   1    6.02    0.40   1
   2  16   2    4.02    0.63   1
   0  19   2   -0.11    0.57   1
   2  16   3   20.25    1.14   1
   3  13   3    2.65    0.53   1
   0  19   3   88.38    2.62   1
   3  12   4   45.71    2.13   1
   3  13   1   32.07    1.86   1
   1  18   2    5.23    0.62   1
  -1  20   2    1.33    0.58   1
  -1  20   3   10.36    0.97   1
   1  18   3   11.45    0.95   1
   2   4  -1   61.80    1.62   1
   1   2  -1   13.55    0.54   1
   1  17   5   14.79    1.11   1
   0  19   4   -0.09    0.62   1
   2  16   4  498.87    8.01   1
   3  13   4   57.32    2.57   1
   3  14   2    1.63    0.51   1
   3   5   2    2.58    0.32   1
   3   6   0    0.51    0.35   1
   3  14   3   14.63    1.01   1
  -6   5  -3    8.56    0.88   1
  -4   3  -3  170.55    4.06   1
  -9   5  -3  120.70    4.48   1
  -2   2  -2  128.03    2.76   1
  -4   6  -2    2.28    0.56   1
 -11   6  -2   23.41    2.82   1
 -13   5  -1    6.49    1.20   1
 -10   7  -2   67.35    3.63   1
 -14   7   2   46.84    3.97   1
 -14   6   1    5.24    0.99   1
 -12   8   0   59.72    3.54   1
 -14   5   0    5.75    1.01   1
 -12   5  -2   38.24    3.36   1
 -10   5  -3  149.58    4.88   1
 -12   7  -1    7.86    1.41   1
  -8   6  -3  265.69    6.85   1
  -7   6  -3  105.36    4.16   1
  -3   5  -2    2.16    0.45   1
  -5   5  -3   47.30    2.85   1
  -1  14  -7    0.62    0.52   1
   0   8  -1   -0.04    0.33   1
  -2  14 -10   18.92    1.12   1
   1   7  -1   11.67    0.63   1
   2   8  -2  399.58    5.52   1
  -1   6   0    0.78    0.32   1
  -1   9  -1    2.74    0.55   1
   0  14  -8   15.28    1.02   1
   2   5  -1  167.64    2.54   1
  -4  14 -10    0.56    0.50   1
  -1  14 -10   41.95    2.14   1
   0  14  -9    0.12    0.55   1
   0   5   0    0.37    0.26   1
  -2  14 -11   56.12    2.96   1
  -2  15  -8    4.67    0.68   1
   0   9  -1    3.07    0.35   1
  -3  15  -8    1.18    0.53   1
  -2  15  -7   26.20    1.28   1
   1   8  -1  158.14    2.91   1
  -3  15  -7    0.84    0.57   1
   2   6  -1   87.88    2.16   1
  -1   7   0    0.37    0.22   1
  -2  15  -9   36.18    3.05   1
  -3  15  -9   27.50    1.25   1
  -1  15  -8    5.41    0.72   1
   2   9  -2   94.12    2.40   1
  -1  15  -7    2.20    0.56   1
   0   6   0  572.05    6.75   1
  -1  14 -11    3.32    0.64   1
  -1  10  -1    1.07    0.46   1
  -1  15  -9    5.89    0.90   1
  -4  15  -9    4.90    0.63   1
  -2  15 -10   10.78    0.81   1
  -3  15 -10   37.47    2.92   1
   0  15  -8    0.57    0.40   1
   0  15  -7  135.15    3.42   1
   2   7  -1  324.24    4.58   1
   0  10  -1    0.49    0.40   1
   1   9  -1    1.85    0.32   1
  -1  15 -10   73.28    3.03   1
   0   7   0    0.91    0.31   1
  -1   8   0    0.58    0.39   1
   0  15  -9    5.63    0.78   1
   1   4   0    0.67    0.17   1
   1   3   0    4.33    0.26   1
   2  10  -2    1.77    0.50   1
   1   5   0    0.10    0.18   1
  -1  11  -1   11.93    0.82   1
  -2  16  -8    5.45    0.70   1
  -2  16  -7   31.53    2.62   1
   2   8  -1   25.15    1.31   1
  -3  16  -8    7.66    0.70   1
  -3  16  -7    0.32    0.68   1
  -1  16  -8    2.19    0.63   1
  -1  16  -7  133.12    3.34   1
  -2  16  -9    3.72    0.55   1
   1   6   0    0.57    0.20   1
   0   8   0   58.99    1.77   1
  -2  16  -6    6.62    0.69   1
  -3  16  -9   63.53    2.85   1
   1   2   0    1.23    0.18   1
   1  10  -1    1.56    0.44   1
  -1   9   0    1.41    0.45   1
  -1  16  -9    1.39    0.56   1
   0  11  -1   73.16    2.26   1
   2  11  -2    8.50    0.73   1
   0  16  -7    0.39    0.50   1
   0  16  -8  126.88    4.27   1
   1   7   0    1.61    0.34   1
   2   9  -1  501.12    6.53   1
   0   9   0    0.12    0.28   1
   0  16  -9    0.16    0.54   1
  -1  10   0   -0.14    0.42   1
   1  11  -1   13.97    0.86   1
   1   8   0    1.84    0.38   1
   1  16  -7  133.28    3.71   1
  -2  17  -7   38.72    2.28   1
   2  10  -1    1.36    0.47   1
  -2  17  -8    8.95    0.75   1
  -1  17  -7    6.16    0.71   1
  -3  17  -7   52.39    2.60   1
  -1  17  -8    2.24    0.59   1
   0  10   0 1070.66   12.41   1
  -3  17  -8    1.22    0.52   1
  -2  17  -6    1.94    0.56   1
   1   9   0    0.14    0.24   1
   2   5   0   50.12    1.33   1
  -1   5   1  119.27    2.08   1
   2   6   0   30.83    1.27   1
  -1   6   1  418.33    5.35   1
  -1  17  -9    1.15    0.47   1
  -1  11   0    1.00    0.56   1
   0  17  -7   41.58    2.19   1
   2   4   0   22.80    0.89   1
   1  12  -1   26.64    1.54   1
   0  17  -8    1.06    0.54   1
  -1   4   1  169.29    2.42   1
   2   7   0    3.53    0.42   1
  -1   7   1    9.78    0.74   1
   2  11  -1    0.32    0.35   1
   0  11   0    0.69    0.31   1
   1  10   0    0.28    0.32   1
   2   8   0  174.25    3.26   1
   0  17  -9    1.36    0.56   1
  -1   8   1  154.53    2.84   1
   0   6   1    0.68    0.28   1
   1  17  -7    6.18    0.88   1
   0   5   1  961.63   10.40   1
  -1  12   0    0.80    0.40   1
   2   3   0   35.91    0.96   1
   0   7   1  390.62    4.97   1
   2   9   0    9.42    0.66   1
   2  12  -1    0.84    0.40   1
  -2  18  -7   18.17    1.04   1
  -1  18  -7   24.78    1.16   1
   1  11   0    0.48    0.42   1
  -1   3   1   55.81    1.24   1
   0   8   1    0.33    0.24   1
  -2  18  -6    5.36    0.68   1
  -1  18  -8   10.89    0.76   1
   0   4   1    0.39    0.19   1
   0  12   0  237.78    4.24   1
  -1  18  -6    6.04    0.71   1
  -3  18  -7   49.86    2.71   1
   0  18  -7    1.23    0.55   1
   2  10   0   52.77    1.87   1
   0   9   1    3.70    0.39   1
   0  18  -8    1.17    0.57   1
   2  13  -1   36.94    2.07   1
   1  12   0   -0.30    0.34   1
   1   6   1  416.68    5.15   1
   1   7   1   10.40    0.58   1
   0  13   0    0.37    0.42   1
   1   8   1  152.04    2.79   1
   0  10   1    0.57    0.52   1
   1   5   1  117.91    2.07   1
   2  11   0  104.87    2.73   1
   1  18  -7   29.50    2.52   1
   0   3   1  707.90    7.63   1
   1   9   1    1.12    0.28   1
   1  13   0    0.49    0.38   1
   0  11   1   71.21    2.41   1
   2  12   0  551.04    7.47   1
   1  10   1    0.56    0.39   1
  -1  19  -6    6.59    0.69   1
   1   4   1  169.71    2.49   1
  -2  19  -6    0.56    0.48   1
   3  10   0    0.41    0.31   1
   0  14   0   20.81    1.10   1
   2   2   0  421.61    4.66   1
   0  19  -6   -0.60    0.50   1
  -2  19  -5   13.34    0.84   1
   2   7   1  302.15    4.24   1
   2   8   1   20.38    1.22   1
   1  11   1   15.63    0.89   1
   0  12   1   -0.30    0.40   1
   3  11   0   -0.02    0.36   1
   2   6   1   79.18    1.76   1
   1  14   0    0.01    0.40   1
   2  13   0    3.27    0.49   1
   2   9   1  479.22    6.12   1
   3  14  -1    6.50    0.66   1
   2  10   1    0.31    0.39   1
   1  19  -6    6.62    0.67   1
   2   5   1  151.89    2.58   1
   1  12   1   23.17    1.53   1
   3  12   0    0.67    0.58   1
   0  13   1   29.26    1.59   1
   2  11   1    0.87    0.47   1
   1   3   1   53.90    1.14   1
   2  14   0    3.70    0.54   1
   0   8   2  765.56    9.00   1
   0   7   2   -0.13    0.24   1
   0   9   2   -0.48    0.26   1
   1  13   1   39.53    1.99   1
   3  13   0    0.63    0.55   1
   2  12   1    1.58    0.39   1
   0  10   2  191.19    3.40   1
   0   6   2  605.68    7.08   1
   0  14   1    0.90    0.43   1
   3   8   1  323.76    4.59   1
   2   4   1   59.90    1.38   1
  -1  20  -5   43.86    2.49   1
   3   9   1    3.03    0.53   1
   0   2   1    0.25    0.17   1
   3   7   1   62.81    1.74   1
   3  10   1   35.55    1.53   1
   1   8   2   25.09    1.24   1
   0  11   2    0.77    0.51   1
   1   9   2  248.60    3.91   1
   1  14   1   68.74    2.41   1
   1   7   2    0.98    0.27   1
   3  14   0    0.86    0.47   1
   2  13   1   40.69    2.04   1
   1  10   2   72.26    2.17   1
   3  11   1   73.51    2.26   1
   0   5   2   -0.19    0.17   1
   0  15   1   -1.16    0.60   1
   0  12   2   84.81    2.49   1
   1   6   2    0.04    0.19   1
   1  11   2   80.85    2.34   1
   3  12   1   19.42    1.73   1
   2  14   1   11.20    0.86   1
   1  15   1   12.48    0.94   1
   3  15   0    0.40    0.49   1
   1  12   2   35.38    1.93   1
   2   9   2   88.59    2.29   1
   2   8   2  356.05    4.85   1
   0  13   2    0.30    0.59   1
   2  10   2    2.79    0.49   1
  -1   4   2   34.15    1.20   1
   3  13   1   30.86    1.87   1
   2   7   2   65.12    1.76   1
   1   5   2   68.87    1.62   1
   0  16   1    0.27    0.64   1
   2  11   2    8.21    0.69   1
   2   3   1   76.86    1.42   1
   1  13   2   63.80    2.24   1
   2  15   1    1.94    0.49   1
   0   4   2  459.72    5.37   1
   0  14   2   12.98    0.92   1
   2  12   2   41.54    1.95   1
   1  16   1   15.70    1.01   1
   2   6   2   20.24    1.08   1
   3  14   1    7.97    0.77   1
   1   2   1   13.34    0.57   1
   1  14   2    0.53    0.54   1
   2  13   2   17.62    1.46   1
   3   9   2   32.21    1.71   1
   3  10   2   32.92    1.58   1
   2  16   1    0.81    0.50   1
   3   8   2  113.40    2.52   1
   0   9   3  507.48    6.66   1
   0  10   3    0.09    0.44   1
   0  15   2    0.42    0.46   1
   3  11   2  404.10    5.69   1
   0   8   3   -0.26    0.27   1
   3  15   1    0.42    0.46   1
   0  11   3   42.71    1.89   1
   1   4   2   33.78    1.12   1
   2   5   2   48.51    1.44   1
   3   7   2   12.91    0.69   1
   2  14   2  250.53    4.64   1
   3  12   2    3.23    0.56   1
   1  15   2   10.93    0.91   1
   1  10   3  320.37    4.91   1
   1   9   3    9.20    0.69   1
   0   7   3    5.93    0.53   1
   1  11   3   79.45    2.43   1
   1   8   3   57.52    1.88   1
   3  13   2    1.88    0.58   1
   3  16   1   18.18    1.09   1
   1  12   3   80.62    2.64   1
   3   6   2  127.70    2.45   1
   2  15   2    7.39    0.67   1
   1   7   3   21.83    1.18   1
   1  16   2    3.87    0.76   1
   0   6   3    0.51    0.24   1
   2  10   3  126.18    2.95   1
  -1   3   2   65.01    1.22   1
   3  14   2    1.84    0.52   1
   2   9   3    6.26    0.51   1
   1  13   3   18.81    1.05   1
   2  11   3  885.68   10.72   1
   0   3   2    0.90    0.17   1
   2   8   3   37.71    1.56   1
   2  12   3   51.22    2.11   1
   2   4   2  321.02    4.07   1
   2  16   2    4.78    0.63   1
   1   6   3  302.23    4.37   1
   1  14   3    5.51    0.61   1
   3  15   2   -0.02    0.46   1
   2  13   3   25.31    1.66   1
   3   5   2    3.06    0.40   1
   2   7   3  157.74    2.90   1
   1  17   2   18.24    1.13   1
   4  13   2   61.45    2.47   1
   2   2   1  132.69    1.96   1
   3  10   3   21.82    1.46   1
   0   5   3  163.00    2.60   1
   3  11   3   47.48    1.99   1
   1   3   2   67.59    1.36   1
   2  14   3    1.18    0.61   1
   3   9   3    9.99    0.74   1
   1  15   3    0.88    0.52   1
   4  14   2  109.83    3.22   1
   3  12   3    0.70    0.41   1
   2  17   2   12.38    0.98   1
   3  16   2   88.70    3.01   1
   3   8   3  102.94    2.59   1
   2   6   3   49.84    1.62   1
   3  13   3    2.73    0.63   1
   1   5   3    1.07    0.23   1
   4  17   1   16.52    1.11   1
   2  15   3   33.21    2.08   1
   4  15   2   12.62    1.01   1
   1  16   3    3.08    0.73   1
   1  10   4    0.70    0.45   1
   3  14   3   12.81    0.95   1
   3   7   3    7.39    0.61   1
   1  11   4  115.01    2.83   1
   3  17   2    2.37    0.73   1
   1  12   4    2.00    0.47   1
   1   9   4    1.01    0.44   1
   3   4   2   44.49    1.46   1
   4  11   3   32.20    1.75   1
   2  16   3   20.39    1.89   1
   4  10   3   17.25    0.97   1
   1  13   4    2.45    0.60   1
   4  16   2  144.72    4.02   1
   1   8   4  239.78    3.85   1
   4  12   3  180.72    3.88   1
   3  15   3   24.79    2.01   1
   4   9   3  447.64    6.26   1
   2  11   4   11.26    0.85   1
   2   3   2  199.75    2.81   1
   2  10   4    2.89    0.43   1
   2   5   3    9.89    0.58   1
   1  17   3    1.48    0.56   1
   2  12   4   34.31    1.84   1
   0   7   4    0.45    0.27   1
   0   4   3    0.23    0.29   1
   4  13   3  227.96    4.73   1
   2   9   4    0.06    0.29   1
   3   6   3  294.94    4.32   1
   1  14   4  277.54    5.61   1
   2  13   4    3.38    0.66   1
   1   7   4   88.28    2.14   1
   4  14   3   21.68    1.69   1
   2  17   3   25.46    1.83   1
   3  16   3   83.92    2.90   1
   2   8   4    1.90    0.38   1
   4  17   2   -0.12    0.66   1
   1   4   3   32.62    1.11   1
   2  14   4    0.17    0.47   1
   1  15   4    8.39    0.89   1
   3  11   4    9.44    0.81   1
   3  10   4   85.24    2.47   1
   3  12   4   45.74    1.91   1
   1  18   3   10.58    1.01   1
   4  15   3    4.97    0.78   1
   0   6   4  791.63    9.33   1
   3  13   4   61.86    2.45   1
   3   9   4  205.66    3.66   1
   0   2   2  273.67    3.31   1
   2   7   4    6.00    0.56   1
   2  15   4    1.27    0.72   1
   3  17   3    7.65    0.89   1
   1   1   1    7.72    0.41   1
   3   5   3   19.00    1.04   1
   1   6   4  129.75    2.61   1
   1  16   4   93.34    3.43   1
   2  18   3    6.50    0.70   1
   3  14   4    9.01    0.81   1
   3   8   4   52.90    2.01   1
  -1   2   2  146.86    2.11   1
   4  16   3   15.22    1.07   1
   2   4   3   35.91    1.22   1
   1   2   2  152.74    2.12   1
   2  16   4  465.43    7.54   1
   3   3   2    1.13    0.26   1
   3  15   4   44.79    2.12   1
   4  11   4    3.33    0.65   1
   4  12   4   32.65    2.26   1
   1  11   5  179.18    3.80   1
   2   6   4  434.58    5.62   1
   1  12   5   -0.36    0.62   1
   4  10   4  230.71    4.23   1
   1  10   5  144.76    3.16   1
   1  17   4   55.67    2.39   1
   3  18   3    0.85    0.61   1
   3   7   4    0.88    0.33   1
   4  13   4    1.95    0.56   1
   1  13   5  126.77    3.61   1
   4  17   3   14.67    0.99   1
   4   9   4   55.29    2.31   1
   0   5   4    0.53    0.43   1
   1   9   5  196.83    3.55   1
   2  11   5    0.89    0.41   1
   3  16   4  110.35    3.14   1
   4  14   4  100.08    2.80   1
   2  12   5   49.19    2.21   1
   2  17   4   36.28    2.40   1
   0   3   3    3.29    0.34   1
   2  10   5   19.61    1.03   1
   1  14   5   41.20    2.29   1
   1   5   4   91.88    2.07   1
   2  13   5   28.63    1.91   1
   4   8   4    3.92    0.60   1
   1   8   5  134.41    2.94   1
   2   9   5  115.96    2.82   1
   4  15   4   36.07    2.05   1
   1   3   3    8.51    0.47   1
   2  14   5   73.97    2.70   1
   3   4   3  151.54    2.61   1
   1  18   4  101.93    3.45   1
   3   6   4  125.49    2.62   1
   2   2   2  129.77    2.12   1
   3  17   4   18.96    1.12   1
   3  12   5   45.80    2.09   1
   3  11   5   54.20    2.12   1
   4  18   3    0.26    0.56   1
   2   5   4  185.63    3.11   1
   3  10   5   11.95    0.84   1
   3  13   5   21.14    1.70   1
   2   8   5   99.98    2.52   1
   2  18   4   11.94    1.07   1
   2  15   5  173.20    4.23   1
   4  16   4    3.00    0.79   1
   4   7   4   63.53    2.25   1
   1   7   5    1.13    0.36   1
   3  14   5    0.47    0.54   1
 -11  10   2   33.92    2.00   1
 -10   9   4    2.53    0.72   1
  -3   8   1  325.08    4.96   1
 -12   8   4   13.41    1.00   1
 -12   9   3   21.15    1.15   1
  -2   6   2   23.19    1.14   1
 -14   7   3    1.57    0.41   1
 -10  10   3  112.57    3.17   1
 -10   8   5   60.35    2.50   1
  -2   5   3    9.38    0.58   1
 -13   9   2    1.73    0.55   1
 -11   9   4    0.82    0.51   1
  -3   7   3    5.60    0.58   1
  -1   5   0    0.62    0.28   1
 -11  10   3   45.21    2.13   1
 -11   8   5  110.08    3.83   1
  -3   6   4  127.87    2.68   1
 -12  10   2   30.98    2.03   1
  -3   8   2  116.62    2.65   1
  -1   2   3  142.61    2.38   1
  -2   7   1  293.66    4.42   1
 -10  11   2   27.16    2.11   1
  -1   4   2   36.02    1.15   1
  -1   5   1  114.79    2.01   1
 -13   8   4    8.54    0.87   1
 -13   9   3   -0.19    0.37   1
 -10  10   4    2.77    0.48   1
 -12   9   4   64.89    2.33   1
 -10   9   5   20.47    1.14   1
 -11  11   2   16.05    1.06   1
 -12  10   3    1.67    0.60   1
  -2   6   3   49.72    1.68   1
 -10  11   3   17.98    1.11   1
 -12   8   5   71.03    3.15   1
  -2   7   2   64.53    1.84   1
  -1   3   3    8.84    0.48   1
 -11  10   4    0.09    0.56   1
  -3   8   3  103.55    2.65   1
 -11   9   5   37.86    2.87   1
  -3   7   4    0.65    0.31   1
 -13  10   2    2.31    0.64   1
  -2   5   4  176.46    3.08   1
 -11  11   3   22.13    1.19   1
  -1   5   2   66.87    1.57   1
 -12  11   2   14.46    1.00   1
  -3   9   2   30.23    1.79   1
  -2   8   1   22.39    1.27   1
 -13   9   4   -1.27    0.67   1
 -10  10   5   16.61    0.99   1
 -10  11   4   78.43    3.67   1
 -12  10   4   46.62    3.01   1
  -1   4   3   32.18    1.23   1
 -13  10   3    9.55    0.79   1
  -1   6   1  372.87    4.86   1
  -2   7   3  161.36    2.94   1
 -12   9   5   58.32    3.08   1
 -13   8   5    0.35    0.52   1
 -12  11   3   85.62    3.26   1
  -2   6   4  441.13    5.99   1
  -2   8   2  354.50    4.98   1
  -3   8   4   55.91    2.05   1
 -11  11   4   40.16    2.10   1
 -10  12   3   16.85    1.11   1
 -11  10   5    3.13    0.80   1
  -3   9   3   11.98    0.79   1
  -1   6   2    0.88    0.30   1
  -1   5   3    1.85    0.33   1
 -11  12   3   10.17    0.94   1
  -3  10   2   36.62    1.88   1
 -10  11   5   11.57    0.96   1
  -2   8   3   44.54    1.75   1
 -12  11   4   -0.13    0.38   1
 -10  12   4   70.60    3.67   1
 -12  10   5    0.00    0.60   1
  -2   7   4    4.55    0.44   1
  -1   7   1    7.50    1.14   1
  -3   9   4  202.79    4.04   1
   0   2   1    0.40    0.17   1
 -11  11   5    1.22    0.71   1
  -2   9   2   91.57    2.29   1
  -3  10   3   19.12    1.43   1
  -1   6   3  306.26    4.36   1
 -11  12   4   34.36    1.93   1
  -3   8   5   29.26    1.75   1
 -12  12   3  110.03    3.43   1
  -1   7   2    0.36    0.23   1
 -10  13   3    7.12    0.90   1
   0   3   0    0.49    0.12   1
   0   3   1  600.15    6.61   1
  -2   8   4    2.23    0.38   1
  -2   9   3    8.72    0.69   1
 -10  12   5   -1.05    0.56   1
  -1   5   4   96.77    2.27   1
 -11  13   3    2.55    0.57   1
 -12  11   5    1.87    0.70   1
  -3  10   4   77.70    2.62   1
 -10  11   6   58.62    3.11   1
  -1   8   1  142.13    2.63   1
   0   4   1    0.61    0.15   1
  -1   7   3   22.02    1.21   1
 -10  13   4    1.16    0.60   1
  -3   9   5   11.22    0.80   1
   0   4   0  169.51    2.40   1
  -2   7   5    7.10    0.63   1
   0   2   2  253.31    3.20   1
   0   3   2    0.82    0.22   1
  -2  10   2    1.96    0.49   1
  -3  11   3   49.48    2.04   1
  -1   8   2   22.66    1.23   1
 -11  12   5    7.60    0.70   1
  -1   6   4  131.59    2.87   1
 -11  11   6    0.50    0.58   1
  -2   9   4   -0.32    0.28   1
   0   4   2  430.25    5.16   1
 -11  13   4   14.44    1.00   1
   0   5   1  803.91    8.96   1
   0   1   2   -0.10    0.15   1
  -2  10   3  133.14    2.98   1
   0   5   0    0.47    0.23   1
  -2   8   5  103.78    2.57   1
  -1   8   3   60.64    1.91   1
  -3  10   5   12.28    0.89   1
 -10  13   5    4.89    0.63   1
  -1   7   4   87.67    2.17   1
   0   5   2    0.56    0.25   1
 -10  12   6    1.77    0.56   1
  -1   9   2  247.74    4.02   1
   0   3   3    2.99    0.33   1
   0   6   1    0.18    0.24   1
  -3  12   3    0.81    0.43   1
  -2  10   4    3.54    0.54   1
 -10  14   4    0.17    0.54   1
   0   4   3    0.46    0.23   1
 -11  13   5    2.46    0.43   1
  -2   9   5  122.26    2.90   1
   0   6   2  569.83    6.85   1
   0   2   3    0.01    0.16   1
 -11  12   6    7.30    0.72   1
  -1   8   4  250.75    3.99   1
  -1   9   3   10.15    0.74   1
  -2  11   3  900.95   11.10   1
   0   5   3  164.88    2.67   1
   0   7   1  366.15    4.86   1
  -3  10   6  356.25    5.63   1
  -1   7   5    0.62    0.30   1
  -1  10   2   76.47    2.33   1
   0   6   3    0.42    0.30   1
 -10  13   6   72.54    2.95   1
   0   7   2    0.30    0.31   1
 -10  14   5   15.34    0.93   1
  -2  11   4   13.55    0.92   1
  -2  10   5   20.89    1.52   1
  -1   9   4    1.02    0.34   1
  -3  13   3    2.13    0.53   1
  -9  15   4    0.54    0.53   1
  -1  10   3  324.36    4.96   1
   0   7   3    6.46    0.53   1
  -1   8   5  138.97    2.92   1
  -2  12   3   49.39    2.33   1
   0   5   4    0.65    0.35   1
   0   8   2  739.32    8.76   1
  -3  11   6   22.89    1.51   1
 -10  15   4    3.43    0.67   1
   0   6   4  760.61    9.09   1
  -2  11   5    0.44    0.54   1
  -1  10   4    1.49    0.44   1
  -2  12   4   36.04    2.02   1
   0   8   3    0.37    0.24   1
  -1   9   5  198.60    3.78   1
  -9  13   7   15.95    0.90   1
  -1  11   3   80.65    2.32   1
   0   7   4   -0.27    0.32   1
  -2  10   6   25.96    1.60   1
   0   9   2    0.51    0.37   1
  -2  13   3   28.75    1.92   1
   0   9   3  491.94    6.35   1
   0   8   4  468.41    6.09   1
  -1  11   4  123.67    3.01   1
  -1  10   5  149.57    3.23   1
  -2  12   5   58.57    2.24   1
  -9  16   4    3.64    0.63   1
  -2  11   6    2.51    0.49   1
  -2  13   4    4.91    0.70   1
  -9  15   6    6.17    0.68   1
  -1  12   3   86.39    2.58   1
   0  10   2  192.46    3.56   1
   0   7   5  682.15    8.56   1
   0   9   4    0.44    0.31   1
  -9  14   7   20.23    2.25   1
   0  10   3    0.70    0.42   1
  -1  11   5  188.16    4.12   1
  -1  12   4    2.32    0.58   1
   0   8   5    0.55    0.45   1
  -2  13   5   26.27    1.92   1
  -2  12   6    0.59    0.44   1
  -1  10   6    3.64    0.51   1
   1   5   2   66.31    1.58   1
   0  10   4    0.28    0.40   1
   1   6   2    0.27    0.20   1
   1   5   1  118.35    2.01   1
  -2  14   4   -0.06    0.48   1
   1   4   2   36.41    1.11   1
   1   6   1  383.14    5.08   1
   0   9   5    8.89    0.71   1
  -1  13   3   21.99    1.09   1
   0  11   3   43.97    1.92   1
   1   5   3    1.30    0.25   1
   1   7   2    0.81    0.27   1
   1   6   3  304.34    4.30   1
  -1  12   5    0.22    0.40   1
   1   4   1  170.72    2.40   1
   1   7   1   12.33    0.63   1
   1   7   3   22.93    1.22   1
   1   4   3   34.95    1.17   1
  -1  11   6  215.11    4.18   1
  -1  13   4    4.14    0.66   1
   1   8   2   20.80    1.21   1
  -2  13   6   13.19    0.97   1
   0  11   4    0.09    0.35   1
   1   3   2   69.65    1.38   1
  -2  14   5   71.06    2.67   1
   0  10   5   -0.45    0.33   1
   1   8   3   58.56    1.89   1
   1   6   4  129.90    2.65   1
   1   5   4   90.78    1.97   1
   1   5   0    0.41    0.25   1
  -2  12   7   27.41    1.29   1
   1   7   4   85.05    2.23   1
   1   3   3    7.74    0.44   1
   1   3   1   57.75    1.17   1
   0  12   3   -0.15    0.37   1
   1   9   2  245.71    4.07   1
  -1  13   5  134.38    3.25   1
  -2  15   4    0.87    0.69   1
   1   9   3    9.30    0.69   1
  -1  12   6  252.72    4.55   1
   1   8   4  254.21    4.02   1
   0  11   5    1.26    0.40   1
   0  12   4    3.51    0.49   1
   1   4   0    0.76    0.17   1
  -1  14   4  299.37    5.51   1
   1   9   4    1.24    0.35   1
   0  10   6   51.72    2.23   1
   1  10   2   72.51    2.35   1
  -2  13   7   30.33    2.22   1
   1  10   3  331.64    4.90   1
   1   7   5    0.45    0.44   1
  -1  13   6   25.25    1.67   1
   0  12   5    0.61    0.41   1
   1   2   2  161.70    2.16   1
   1   8   5  136.56    2.95   1
  -1  14   5   44.21    2.18   1
   1  10   4    0.62    0.31   1
   0  11   6    0.73    0.43   1
   0  13   4    0.83    0.41   1
   1   2   3  146.28    2.27   1
   1   9   5  197.46    3.59   1
  -1  12   7    0.23    0.46   1
   1  11   3   78.99    2.32   1
  -1  15   4   10.12    0.94   1
   1  11   4  122.72    3.02   1
   1   2   1   16.01    0.61   1
   0  13   5  165.18    3.55   1
   1   3   0    2.01    0.22   1
   1  10   5  146.24    3.24   1
  -1  14   6   52.09    2.39   1
   0  12   6   25.32    1.92   1
  -1  15   5   22.02    1.97   1
  -1  13   7    3.24    0.61   1
   1  12   3   77.25    2.44   1
   0  14   4   76.08    2.66   1
   1  11   5  196.65    3.77   1
   1  12   4    2.60    0.47   1
   0  13   6   -0.16    0.47   1
   2   7   3  157.79    2.96   1
   0  14   5    0.30    0.53   1
   2   7   2   63.07    1.80   1
   2   8   3   42.12    1.60   1
   2   6   3   48.20    1.55   1
   1  10   6    3.54    0.53   1
   2   8   2  363.74    4.99   1
   2   6   2   24.06    1.09   1
  -1  15   6   81.94    2.84   1
   1  12   5    0.87    0.43   1
  -1  14   7    0.45    0.56   1
   2   9   3    7.61    0.65   1
   2   7   4    7.41    0.63   1
   0  12   7    0.36    0.46   1
   2   9   2   87.54    2.45   1
   2   8   4    1.08    0.34   1
   2   5   3   11.78    0.62   1
   2   6   4  441.06    5.95   1
   2   7   1  303.62    4.18   1
   2   5   2   48.87    1.43   1
  -1  16   5   42.26    2.26   1
   1  13   4    4.18    0.68   1
   0  15   4    0.55    0.51   1
   1  11   6  215.24    4.21   1
   2   9   4   -0.38    0.29   1
   2   6   1   84.81    1.99   1
   2  10   3  132.48    3.05   1
   0  14   6    2.18    0.53   1
   2  10   2    2.02    0.50   1
   2   5   4  189.24    3.24   1
   2  10   4    2.05    0.38   1
   0  15   5  147.12    3.46   1
   1  13   5  132.16    3.26   1
   0  13   7    2.60    0.55   1
   2   7   5    6.50    0.62   1
   2   8   5   99.74    2.71   1
   1  12   6  255.62    5.19   1
   2   4   3   39.63    1.38   1
   2   5   1  158.24    2.52   1
   2   9   5  121.96    2.94   1
   2  11   3  871.41   10.96   1
  -1  15   7    5.19    0.81   1
   1   1   2  194.15    2.52   1
   2   4   2  340.97    4.31   1
   1  14   4  291.49    4.87   1
   2  11   4   11.44    0.87   1
   2  10   5   23.21    1.11   1
   0  15   6   -0.21    0.70   1
  -1  17   5    9.22    0.81   1
   1  13   6   22.74    1.67   1
   1  14   5   47.62    2.36   1
   0  14   7    0.99    0.56   1
   2  12   3   50.80    2.33   1
   2  11   5    1.44    0.44   1
   1   2   0    0.35    0.18   1
   2  12   4   34.25    1.79   1
   0  16   5    0.30    0.55   1
   2   4   1   63.94    1.41   1
   1  12   7   -0.14    0.63   1
   2   3   3   17.43    1.01   1
   1  15   4   10.61    0.93   1
   2  10   6   28.73    1.67   1
   2  12   5   53.93    2.34   1
   1  14   6   51.95    2.64   1
  -1  15   8    8.48    0.94   1
   2   3   2  213.10    2.97   1
   2  13   4    4.92    0.69   1
   0  15   7  157.56    3.69   1
   2   5   0   51.15    1.36   1
   2  11   6    2.40    0.52   1
   0  16   6    0.49    0.54   1
   1  15   5   31.89    1.88   1
   1  13   7    2.16    0.56   1
   1   1   1    6.72    0.46   1
   2  13   5   25.05    1.65   1
   3   8   3  109.52    2.50   1
   2  12   6    1.16    0.60   1
   3   9   3   12.22    0.81   1
   0  17   5  103.03    3.09   1
   3   7   3    6.25    0.58   1
   3   8   4   56.88    1.95   1
   3   9   4  204.16    3.85   1
   1  15   6   85.49    3.02   1
   3   8   2  124.89    2.56   1
   3  10   3   24.18    1.15   1
   2  14   4    0.18    0.49   1
   3   9   2   32.42    1.44   1
   3   7   4    0.77    0.31   1
   1  14   7    1.00    0.57   1
   3   7   2   13.67    0.75   1
   3  10   4   84.69    2.61   1
   3   6   3  313.54    4.61   1
   0  16   7    0.10    0.53   1
   3  10   2   28.79    1.76   1
   1  16   5   43.91    2.30   1
   2   3   1   87.19    1.57   1
   2  13   6   15.48    1.03   1
   2  14   5   81.09    2.81   1
   3  11   3   45.99    1.98   1
   3   6   4  129.64    2.81   1
   3   8   5   27.80    1.47   1
   3   9   5    9.82    0.77   1
   3  11   4    9.44    0.82   1
   0  17   6    0.09    0.84   1
   3   6   2  133.33    2.57   1
   2   4   0   24.64    0.94   1
   3  10   5   14.04    0.90   1
   3   7   5    4.28    0.47   1
   0  15   8   -0.02    0.78   1
   2  12   7   24.73    2.05   1
   2   2   3   17.41    1.07   1
   3  11   5   51.25    2.11   1
   3   5   3   18.79    1.04   1
   3  12   3    1.00    0.59   1
   3   7   1   64.37    2.01   1
   2  15   4    0.21    0.53   1
   1  15   7    3.65    0.63   1
   1  16   6  136.50    3.71   1
   3  12   4   44.28    2.04   1
   2  14   6   -0.21    0.47   1
   3   5   4  284.93    4.18   1
   3   9   6   73.90    2.59   1
   2  15   5  182.13    4.11   1
   2  13   7   31.76    2.22   1
   3  10   6  350.26    5.76   1
   2   2   2  143.21    2.23   1
   3   5   2    2.89    0.34   1
   3  12   5   46.00    2.35   1
   8  -2   0   88.76    2.56   1
   4  -1   1   62.45    1.55   1
   5   2   1  111.64    2.24   1
   3   1   1   58.19    1.33   1
   3   0   1   20.29    0.78   1
   5  -1   1   12.99    0.64   1
  10   0  -1    2.39    0.47   1
  10   1  -1    4.34    0.52   1
  12  -2  -4   30.91    2.09   1
  11   1  -2    0.56    0.46   1
  11   0  -2  100.93    2.85   1
  10   2  -1   58.37    2.43   1
  10  -1  -1    3.95    0.51   1
  11   2  -2    8.57    0.70   1
   6   1   1  145.27    2.83   1
   6   0   1    1.52    0.31   1
   3   2   1    1.02    0.20   1
  11  -1  -2    0.89    0.46   1
  13   1  -7    4.26    0.63   1
  13   0  -7    8.90    0.73   1
   6   2   1  118.43    2.53   1
   3  -1   1   57.62    1.32   1
   6  -1   1  146.35    2.86   1
  13   1  -6    8.48    0.74   1
  13   0  -6  231.08    4.40   1
   4  -2   1   38.56    1.37   1
   5  -2   1  108.10    2.29   1
  13   2  -7   16.71    0.96   1
  10  -2  -1   56.41    2.18   1
  11  -2  -2    9.79    0.88   1
   9   0   0    0.56    0.36   1
  13  -1  -7    4.77    0.65   1
   9   1   0   -0.03    0.32   1
  12   1  -3    8.42    0.71   1
  12   0  -3   14.11    0.98   1
  13   2  -6   28.08    1.85   1
  13  -1  -6    8.99    0.84   1
  12   2  -3  120.70    3.09   1
   9   2   0    1.04    0.53   1
   9  -1   0    1.41    0.39   1
  12  -1  -3    7.20    0.68   1
   6  -2   1  120.13    2.54   1
   7   1   1  114.05    2.68   1
   7   0   1  370.43    5.15   1
  13   3  -7   39.31    2.60   1
  13   1  -5    1.08    0.53   1
  13   0  -5   66.05    2.56   1
  13  -2  -7   14.96    0.89   1
  13   3  -6    2.63    0.58   1
  12  -2  -3  119.21    3.19   1
   9  -2   0    0.09    0.38   1
   7   2   1  464.49    6.56   1
  13  -2  -6   30.42    1.30   1
   7  -1   1  114.20    2.60   1
  13   2  -5   12.72    0.95   1
  13  -1  -5    1.28    0.52   1
   3  -2   1    1.45    0.22   1
  13   3  -5   22.85    1.14   1
  13  -2  -5    8.78    0.76   1
   7  -2   1  469.44    6.11   1
  11   0  -1  117.47    3.07   1
  11   1  -1   42.79    2.04   1
  13   1  -4    1.98    0.57   1
  13   0  -4   44.22    2.14   1
  11  -1  -1   36.74    2.04   1
   2   0   1  222.91    2.78   1
  11   2  -1   31.89    1.92   1
   2   1   1  214.45    2.80   1
   8   0   1  630.42    8.09   1
  13  -1  -4    1.30    0.55   1
  12   1  -2    7.14    0.68   1
  12   0  -2  125.09    3.09   1
   8   1   1    3.62    0.46   1
  13   2  -4   48.90    2.17   1
  10   0   0  511.52    7.29   1
  10   1   0   27.32    1.60   1
  12   2  -2   45.16    2.38   1
  12  -1  -2    6.36    0.64   1
   8   2   1  126.16    2.87   1
   8  -1   1    2.47    0.39   1
  10  -1   0   27.77    1.82   1
  10   2   0   16.84    0.99   1
  11  -2  -1   28.64    1.88   1
   7  -3   1    0.16    0.28   1
  13  -2  -4   50.42    2.48   1
  12  -2  -2   50.03    2.42   1
   2  -1   1  220.41    2.79   1
   8  -2   1  122.49    2.97   1
  10  -2   0   17.80    1.00   1
   2   2   1  150.21    2.22   1
  13   1  -3   17.53    1.02   1
  13   0  -3   21.77    1.14   1
  13  -1  -3   17.96    1.03   1
  13   2  -3   40.20    2.30   1
   9   0   1  119.68    2.86   1
   9   1   1   69.85    2.32   1
  10  -3   0   32.24    1.98   1
   8  -3   1   25.12    1.56   1
   9  -1   1   70.75    2.36   1
   9   2   1   34.41    1.83   1
  13  -2  -3   40.69    2.13   1
  14   0  -6    6.79    0.56   1
  14   1  -6   -0.14    0.32   1
  12   0  -1    0.94    0.47   1
  12   1  -1    0.35    0.49   1
  14  -1  -6   -1.00    0.51   1
   9  -2   1   35.26    1.76   1
  11   0   0    0.44    0.44   1
  11   1   0    0.52    0.46   1
  12  -1  -1    0.40    0.45   1
  14   0  -5    5.26    0.54   1
  14   1  -5    7.38    0.67   1
  12   2  -1    5.30    0.61   1
  11  -1   0   -0.81    0.48   1
   2  -2   1  154.11    2.16   1
  11   2   0    0.93    0.48   1
   6   1   2    3.16    0.38   1
   6   0   2   56.82    1.77   1
   5   0   2  369.19    4.89   1
  14  -1  -5    7.88    0.71   1
   5   1   2  187.33    3.09   1
  13   0  -2    3.10    0.61   1
  14   2  -5   58.71    2.56   1
  12  -2  -1    4.46    0.60   1
  13   1  -2    3.63    0.58   1
  11  -2   0    0.24    0.48   1
   6  -1   2    3.00    0.36   1
   9  -3   1   47.65    2.02   1
   6   2   2  575.04    7.37   1
  13  -1  -2    3.43    0.57   1
   5  -1   2  189.21    3.12   1
   7   0   2   71.39    2.15   1
  13   2  -2   58.72    2.25   1
   5   2   2   10.84    0.63   1
   7   1   2  122.09    2.83   1
  10   0   1    5.23    0.55   1
  10   1   1    4.91    0.54   1
  14   0  -4   23.33    1.74   1
  14   1  -4    0.12    0.51   1
  14  -2  -5   55.24    2.56   1
   7  -1   2  122.55    2.79   1
  10  -1   1    3.98    0.52   1
   7   2   2   21.12    0.96   1
  14   3  -5   10.56    0.74   1
  13  -2  -2   53.93    2.39   1
  10   2   1   59.42    2.38   1
  14  -1  -4    0.95    0.53   1
   6  -2   2  575.59    7.24   1
  11  -3   0    0.45    0.47   1
   4   1   2   13.64    0.61   1
   4   0   2  194.31    2.96   1
  14   2  -4    0.80    0.51   1
   5  -2   2   10.37    0.62   1
  10  -2   1   57.57    2.22   1
   8   0   2   18.40    0.92   1
   7  -2   2   20.96    1.28   1
   8   1   2   38.59    1.74   1
   4   2   2   25.98    1.23   1
   4  -1   2   12.33    0.58   1
  14  -2  -4    0.95    0.49   1
   8  -1   2   42.11    1.78   1
   8   2   2   29.19    1.59   1
  14   0  -3  330.91    5.98   1
   6  -3   2   25.71    1.31   1
  14   1  -3    0.71    0.66   1
  12   0   0   55.82    2.31   1
  12   1   0  139.45    3.56   1
  10  -3   1  112.00    2.86   1
  12  -1   0  136.57    3.50   1
   8  -2   2   31.17    1.53   1
  14  -1  -3    0.90    0.54   1
   7  -3   2    1.10    0.34   1
  13   0  -1   19.16    1.05   1
  13   1  -1   32.59    2.18   1
  12   2   0   67.12    2.51   1
   5  -3   2   10.15    0.62   1
   4  -2   2   23.89    1.07   1
  14   2  -3    7.58    0.68   1
  13  -1  -1   24.83    2.03   1
  11   0   1  122.68    3.06   1
   9   0   2  120.94    3.07   1
  13   2  -1   39.86    2.21   1
  11   1   1   45.44    2.10   1
   9   1   2    0.98    0.37   1
  12  -2   0   72.08    2.45   1
  11  -1   1   34.85    1.94   1
  14  -2  -3    7.99    0.69   1
   9  -1   2    0.54    0.36   1
  11   2   1   27.41    1.63   1
   9   2   2    7.68    0.72   1
  13  -2  -1   43.74    2.35   1
   8  -3   2  221.61    3.82   1
  11  -2   1   29.82    1.69   1
   9  -2   2    5.32    0.52   1
  12  -3   0   47.46    2.22   1
   3   0   2  206.18    2.89   1
   3   1   2  236.52    3.32   1
  14   0  -2    4.11    0.63   1
  14   1  -2    1.98    0.58   1
   4  -3   2   34.33    1.35   1
  14  -1  -2    1.12    0.55   1
   3  -1   2  239.10    3.22   1
  11  -3   1    4.32    0.58   1
  14   2  -2    9.03    0.72   1
   3   2   2  271.32    3.80   1
  10   0   2   44.11    2.12   1
   9  -3   2   86.91    2.64   1
  10   1   2    1.06    0.43   1
  10  -1   2    1.55    0.44   1
  14  -2  -2   10.85    0.94   1
  10   2   2  263.03    4.86   1
  13   0   0    0.44    0.34   1
  13   1   0    0.34    0.48   1
  10  -2   2  273.52    4.52   1
  12   0   1    0.56    0.45   1
  13  -1   0    0.34    0.34   1
  12   1   1    0.16    0.44   1
   3  -2   2  270.88    3.53   1
  12  -1   1    0.00    0.44   1
  13   2   0    0.44    0.50   1
  12   2   1    3.25    0.59   1
   7   0   3  403.68    5.60   1
  13  -2   0    0.23    0.43   1
   6   0   3  387.45    5.27   1
   7   1   3    0.89    0.33   1
   6   1   3   21.59    1.25   1
  14   0  -1    1.25    0.56   1
  12  -2   1    4.38    0.58   1
  10  -3   2   37.51    1.93   1
   7  -1   3    0.04    0.29   1
   6  -1   3   23.86    1.28   1
  14   1  -1    0.69    0.57   1
   8   0   3  509.07    6.74   1
  14  -1  -1    3.04    0.61   1
   7   2   3  299.92    4.83   1
   6   2   3  200.78    3.58   1
   8   1   3   23.45    1.07   1
  11   0   2  102.06    2.84   1
  11   1   2    1.41    0.47   1
   8  -1   3   24.29    1.04   1
  14   2  -1   29.87    2.50   1
  11  -1   2    1.35    0.48   1
   7  -2   3  298.26    4.52   1
  13  -3   0    0.62    0.51   1
   5   0   3  495.72    6.16   1
   8   2   3  435.78    6.59   1
  12  -3   1    1.89    0.56   1
   5   1   3   30.72    1.40   1
  11   2   2    7.58    0.67   1
   6  -2   3  202.82    3.49   1
  14  -2  -1   30.74    1.89   1
   5  -1   3   29.39    1.36   1
  11  -2   2   10.10    0.82   1
   8  -2   3  443.30    6.05   1
   9   0   3    0.76    0.42   1
   3  -3   2    1.56    0.25   1
   5   2   3   56.47    1.83   1
   9   1   3   -0.06    0.36   1
   9  -1   3    0.77    0.43   1
   7  -3   3    1.98    0.39   1
   9   2   3   26.30    1.64   1
   5  -2   3   57.48    1.64   1
  14  -3  -1    6.36    0.70   1
   6  -3   3   58.89    1.90   1
  11  -3   2    0.03    0.46   1
   8  -3   3   32.28    1.88   1
  13   0   1   12.37    0.83   1
   9  -2   3   25.25    1.61   1
  13   1   1   25.68    1.93   1
  13  -1   1   25.79    1.70   1
  15   0  -2   46.65    2.57   1
  15   1  -2    2.23    0.69   1
  15  -1  -2    1.83    0.63   1
  13   2   1   44.17    2.24   1
  14   0   0   31.43    2.00   1
  10   0   3  346.94    5.29   1
  12   0   2  128.59    3.30   1
  14   1   0   35.22    1.99   1
  10   1   3   53.55    2.23   1
  14  -1   0   39.62    1.93   1
   4   0   3   11.71    0.61   1
  10  -1   3   56.33    2.29   1
  13  -2   1   41.63    2.26   1
  12   1   2    6.45    0.66   1
   4   1   3   63.03    1.69   1
   9  -3   3    1.70    0.43   1
  12  -1   2    6.80    0.64   1
   5  -3   3    0.58    0.29   1
  15   2  -2    6.96    0.67   1
  10   2   3  156.34    3.29   1
   4  -1   3   65.64    1.69   1
  12   2   2   47.00    2.18   1
  14   2   0   23.80    1.19   1
  15  -2  -2    7.02    0.70   1
  10  -2   3  154.60    3.33   1
  12  -2   2   43.75    2.09   1
   2   0   2  166.25    2.35   1
  14  -2   0   23.63    1.20   1
   4   2   3  258.09    3.84   1
   2   1   2    7.67    0.36   1
  13  -3   1    7.95    0.87   1
   4  -2   3  252.16    3.74   1
   2  -1   2    7.80    0.39   1
  10  -3   3   10.44    0.86   1
  12  -3   2    0.41    0.53   1
  11   0   3  237.11    4.44   1
  15   0  -1    3.10    0.44   1
  14  -3   0    1.39    0.60   1
  11   1   3    8.04    0.69   1
  11  -1   3    8.17    0.67   1
  15   1  -1    1.63    0.59   1
  15  -1  -1    1.65    0.45   1
   2   2   2  126.83    2.21   1
  11   2   3   15.91    1.02   1
  11  -2   3   14.54    0.95   1
   1  -2   1   12.24    0.53   1
  15   2  -1   10.61    0.76   1
   7   0   4   15.02    0.84   1
   8   0   4   43.06    1.92   1
   4  -3   3  173.64    2.83   1
   7   1   4  117.35    2.93   1
  15  -2  -1   11.98    0.79   1
  13   0   2    5.10    0.61   1
   8   1   4  185.24    3.58   1
   7  -1   4  117.68    2.85   1
  14   0   1    1.40    0.57   1
   2  -2   2  132.10    2.06   1
   8  -1   4  180.31    3.57   1
  13   1   2    2.89    0.55   1
  13  -1   2    3.67    0.58   1
  14   1   1    1.65    0.58   1
  14  -1   1    2.32    0.59   1
   7   2   4  232.21    4.20   1
   6   0   4  604.98    7.71   1
  11  -3   3   17.79    1.08   1
   8   2   4   54.13    2.20   1
   9   0   4   66.49    2.33   1
   6   1   4   15.67    0.83   1
  13   2   2   57.18    2.30   1
   9   1   4    1.03    0.45   1
   7  -2   4  219.98    3.84   1
   6  -1   4   15.37    0.82   1
   8  -2   4   53.38    2.18   1
   9  -1   4    0.59    0.40   1
  13  -2   2   55.15    2.52   1
  14   2   1   24.77    1.71   1
  14  -2   1   29.55    1.30   1
  15  -3  -1    9.12    0.71   1
   6   2   4  214.63    3.62   1
  12   0   3   14.22    0.95   1
   9   2   4   49.00    2.33   1
   3   0   3  113.75    2.17   1
  12   1   3   10.61    0.90   1
  12  -1   3    8.09    0.68   1
   9  -2   4   46.85    2.15   1
   3   1   3   53.06    1.46   1
   6  -2   4  215.91    3.72   1
  15   0   0    0.48    0.49   1
   3  -1   3   53.31    1.52   1
  13  -3   2   20.55    1.62   1
   8  -3   4  156.87    3.30   1
   7  -3   4    2.23    0.42   1
  10   0   4  328.35    5.18   1
  15  -1   0   -0.26    0.38   1
  15   1   0    1.14    0.56   1
  12   2   3  118.82    2.96   1
  12  -2   3  117.72    3.25   1
  10   1   4   22.63    1.12   1
  10  -1   4   21.17    1.09   1
   5   0   4    2.14    0.32   1
  14  -3   1    6.44    0.71   1
   5   1   4    2.02    0.34   1
   3   2   3   68.54    1.63   1
   9  -3   4   99.95    2.84   1
   5  -1   4    4.25    0.51   1
  10   2   4    5.05    0.58   1
   6  -3   4    0.48    0.35   1
  10  -2   4    6.21    0.63   1
  15   2   0   -0.30    0.49   1
  15  -2   0    0.41    0.57   1
   3  -2   3   63.67    1.62   1
   5   2   4    5.87    0.45   1
  12  -3   3    2.50    0.58   1
   5  -2   4    7.37    0.60   1
  11   0   4    4.80    0.59   1
  10  -3   4   20.36    1.11   1
  14   0   2    4.04    0.65   1
  11   1   4   52.46    2.37   1
  11  -1   4   48.82    2.17   1
  15  -3   0   -0.01    0.49   1
  14  -1   2    1.73    0.58   1
  14   1   2    0.87    0.56   1
  13   0   3   18.52    1.04   1
  11   2   4   54.29    2.41   1
  13   1   3    8.23    0.65   1
  13  -1   3   17.70    1.04   1
  11  -2   4   58.05    2.41   1
   5  -3   4  737.16    8.97   1
   3  -3   3   56.69    1.56   1
  14   2   2    8.72    0.88   1
  14  -2   2    9.64    0.74   1
  15   0   1    3.56    0.47   1
  13   2   3   38.07    1.90   1
  13  -2   3   37.48    2.04   1
  15  -1   1    1.58    0.44   1
   4   0   4   90.58    2.09   1
  15   1   1    2.74    0.60   1
  11  -3   4  153.38    3.45   1
   4   1   4    5.82    0.52   1
   4  -1   4    7.14    0.55   1
   8   0   5   33.43    1.84   1
  12   0   4  127.52    3.39   1
  14  -3   2  119.48    3.90   1
   8  -1   5    0.84    0.40   1
  15   2   1    8.91    0.72   1
  15  -2   1   14.12    0.94   1
  13  -3   3   31.62    1.81   1
   8   1   5    2.25    0.48   1
  12   1   4   13.64    0.99   1
  12  -1   4   14.90    0.98   1
   4   2   4   36.19    1.46   1
   7   0   5  375.28    5.65   1
   9   0   5   76.78    2.49   1
   7  -1   5   87.07    2.48   1
   7   1   5   81.51    2.31   1
   4  -2   4   37.48    1.41   1
   9  -1   5   19.94    1.10   1
   9   1   5   20.03    1.06   1
   8   2   5  240.08    4.47   1
   8  -2   5  246.31    4.43   1
  12   2   4   31.35    1.83   1
  12  -2   4   29.25    1.87   1
   7   2   5    4.18    0.47   1
   7  -2   5    3.40    0.46   1
   9   2   5    9.96    0.70   1
   9  -2   5   14.25    0.94   1
  10   0   5   80.41    2.73   1
   6   0   5  119.26    2.82   1
  15  -3   1    9.93    0.72   1
  10  -1   5   15.44    0.96   1
  10   1   5   16.74    1.06   1
   6   1   5   10.48    0.75   1
   6  -1   5    9.08    0.70   1
  12  -3   4   12.57    0.92   1
   8  -3   5   46.47    1.98   1
   4  -3   4   11.04    0.65   1
  10  -2   5   19.85    1.09   1
   9  -3   5   28.28    1.22   1
  14   0   3  330.70    5.99   1
  10   2   5   16.58    0.86   1
   7  -3   5   99.17    2.76   1
   6   2   5    3.23    0.46   1
   6  -2   5    2.06    0.38   1
  14  -1   3    0.19    0.50   1
  14   1   3    0.15    0.52   1
  15   0   2   46.70    2.75   1
  11   0   5  172.88    3.80   1
  13   0   4   41.07    2.20   1
   2   0   3  647.53    7.43   1
  15  -1   2    0.98    0.40   1
  14  -2   3    9.44    0.83   1
  10  -3   5   54.60    2.23   1
  11  -1   5    5.75    0.63   1
  11   1   5    4.33    0.61   1
  13  -1   4    2.46    0.58   1
  15   1   2    1.08    0.54   1
  13   1   4    1.53    0.55   1
   2   1   3  301.24    3.94   1
  14   2   3   12.70    0.93   1
   6  -3   5   39.68    1.87   1
   2  -1   3  297.89    3.79   1
   5   0   5  200.59    3.54   1
  11  -2   5  393.23    6.28   1
   5   1   5   31.64    1.54   1
   5  -1   5   28.31    1.42   1
  11   2   5  408.19    6.56   1
  13  -2   4   49.77    2.05   1
  15  -2   2    8.59    0.85   1
  13   2   4   47.71    2.67   1
  15   2   2    7.97    0.68   1
   3   0   4   33.01    1.25   1
  14  -3   3   13.50    0.83   1
   5   2   5  251.01    4.28   1
   5  -2   5  260.64    4.23   1
   2   2   3   21.02    1.01   1
   3   1   4   99.33    2.16   1
   3  -1   4   97.13    2.17   1
  11  -3   5    2.44    0.56   1
   2  -2   3   21.93    1.03   1
  13  -3   4   75.22    3.57   1
  12   0   5    3.09    0.45   1
   1   0   2  194.62    2.56   1
  12  -1   5   20.72    1.09   1
  12   1   5   19.86    1.09   1
   3   2   4  455.83    5.85   1
   3  -2   4  446.45    5.68   1
   5  -3   5   31.54    1.73   1
  12  -2   5    2.58    0.54   1
   1  -1   2  179.99    2.32   1
   1   1   2  178.84    2.48   1
   8   0   6   31.27    1.88   1
   9   0   6   30.00    1.31   1
   8  -1   6   17.49    1.01   1
   8   1   6   17.87    1.00   1
   9  -1   6    1.93    0.51   1
   9   1   6    2.24    0.54   1
   7   0   6   37.40    1.83   1
   7  -1   6    5.02    0.53   1
  12  -3   5   15.43    0.91   1
   2  -3   3   14.74    0.97   1
   8  -2   6   16.92    1.01   1
   7   1   6    5.32    0.53   1
   4   0   5   41.56    1.53   1
  14   0   4   20.74    0.94   1
   9  -2   6   31.11    1.78   1
  10   0   6    4.57    0.58   1
  14  -1   4    0.39    0.43   1
   3  -3   4   13.20    0.68   1
  10  -1   6    1.76    0.52   1
   4  -1   5    2.05    0.34   1
   4   1   5    3.43    0.47   1
  10   1   6    0.54    0.49   1
  14   1   4    0.54    0.62   1
   7  -2   6    2.39    0.46   1
   7   2   6    2.89    0.45   1
  10  -2   6   -0.29    0.46   1
  14  -2   4    0.24    0.51   1
   8  -3   6    1.84    0.48   1
   9  -3   6    6.64    0.65   1
   4  -2   5   77.69    2.10   1
   4   2   5   78.12    2.15   1
   6   0   6   26.61    1.57   1
   1  -2   2  153.34    2.16   1
  13   0   5   63.44    2.55   1
   6  -1   6    5.14    0.52   1
  14   2   4    0.81    0.51   1
  13  -1   5    0.48    0.53   1
   6   1   6    4.19    0.48   1
   1   2   2  154.78    2.25   1
  13   1   5    0.70    0.56   1
   7  -3   6  103.90    2.82   1
  11   0   6    2.44    0.54   1
  11  -1   6    3.67    0.58   1
  10  -3   6   69.00    2.43   1
  11   1   6    4.63    0.62   1
   6  -2   6  229.78    4.18   1
  13  -2   5    9.21    0.75   1
   6   2   6  233.61    3.89   1
  14  -3   4   15.46    0.82   1
  11  -2   6    0.57    0.52   1
   4  -3   5  154.38    2.92   1
   6  -3   6   32.68    1.80   1
  13  -3   5   24.10    1.18   1
  11  -3   6   94.52    2.89   1
   5   0   6   -0.05    0.33   1
  12   0   6   14.21    1.03   1
   5  -1   6   76.38    2.27   1
  12  -1   6    4.85    0.65   1
   5   1   6   74.54    2.50   1
  12   1   6    4.03    0.63   1
   5  -2   6   97.61    2.60   1
  12  -2   6    4.78    0.62   1
   5   2   6  100.21    2.83   1
   2   0   4   40.31    1.34   1
   3   0   5   51.26    1.61   1
   2  -1   4    0.68    0.22   1
   2   1   4    1.00    0.24   1
  14   0   5    7.01    0.64   1
   3  -1   5    6.32    0.54   1
  14  -1   5    4.38    0.52   1
   9   0   7   25.07    1.20   1
   8   0   7   44.40    2.13   1
   3   1   5    5.86    0.53   1
  12  -3   6    9.03    0.73   1
   9  -1   7   32.61    2.08   1
   8  -1   7    0.77    0.46   1
   5  -3   6   39.65    1.68   1
   9   1   7   29.89    1.82   1
   8   1   7    1.55    0.52   1
  14   1   5    7.28    0.75   1
  14  -2   5   55.50    3.02   1
  10   0   7   67.68    2.65   1
   9  -2   7    5.92    0.64   1
   8  -2   7   32.35    1.84   1
   3  -2   5  118.20    2.60   1
  10  -1   7    7.21    0.67   1
   2  -2   4   24.92    1.18   1
   7   0   7  114.83    3.02   1
   7  -1   7   12.05    0.87   1
  10   1   7    5.50    0.66   1
   3   2   5  123.02    2.65   1
   2   2   4   25.07    1.14   1
   7   1   7   12.73    0.88   1
  10  -2   7   15.19    1.00   1
   7  -2   7    2.19    0.47   1
  13   0   6  227.13    5.17   1
  13  -1   6    7.25    0.68   1
   9  -3   7  106.74    3.42   1
   8  -3   7    0.07    0.48   1
   4   0   6   11.97    0.76   1
   4  -1   6    5.09    0.48   1
  13   1   6    7.11    0.69   1
  14  -3   5   10.61    0.77   1
  11   0   7   81.03    2.66   1
  11  -1   7   -0.04    0.47   1
   3  -3   5   17.09    0.84   1
   4   1   6    4.19    0.44   1
  13  -2   6   28.11    1.26   1
  10  -3   7    6.34    0.68   1
   6   0   7   55.05    2.21   1
  11   1   7    0.92    0.40   1
   7  -3   7   36.10    1.91   1
   2  -3   4   52.86    1.63   1
   6  -1   7   16.37    0.94   1
   4  -2   6   52.73    1.85   1
  11  -2   7   -0.37    0.47   1
   6   1   7   16.89    0.94   1
   1   0   3  312.48    3.93   1
   4   2   6   59.68    2.07   1
   6  -2   7    4.24    0.52   1
   1  -1   3    6.55    0.38   1
  13  -3   6    2.25    0.55   1
   1   1   3    6.09    0.37   1
  11  -3   7    0.66    0.40   1
   4  -3   6   19.90    1.26   1
   6  -3   7   20.53    1.08   1
  12   0   7    2.59    0.58   1
  12  -1   7   15.53    1.01   1
   1  -2   3  146.66    2.30   1
  12   1   7   16.83    1.07   1
   5   0   7  175.80    3.51   1
  12  -2   7    1.48    0.61   1
   5  -1   7    6.97    0.57   1
   1   2   3  142.43    2.32   1
   5   1   7    5.41    0.53   1
   5  -2   7   96.06    2.79   1
  14   0   6   10.57    0.75   1
  14  -1   6   -0.13    0.32   1
  12  -3   7    5.47    0.69   1
   9   0   8    2.14    0.53   1
   9  -1   8    8.14    0.71   1
   8   0   8   40.61    1.92   1
   8  -1   8    2.54    0.51   1
   9   1   8    8.07    0.70   1
   5  -3   7  119.24    2.92   1
   3   0   6 1275.47   14.42   1
   2   0   5  128.17    2.45   1
   8   1   8    2.45    0.55   1
   3  -1   6    3.14    0.40   1
   9  -2   8   75.82    2.90   1
   2  -1   5   48.39    1.51   1
   1  -3   3    6.46    0.36   1
  10   0   8    0.98    0.53   1
  10  -1   8   16.81    1.03   1
   8  -2   8   13.46    0.91   1
   3   1   6    3.43    0.40   1
   2   1   5   49.66    1.58   1
   7   0   8   14.50    0.95   1
   7  -1   8    1.04    0.47   1
  10   1   8   17.06    1.05   1
  10  -2   8   12.20    0.84   1
   3  -2   6    4.07    0.42   1
  13  -1   7    3.47    0.50   1
  13   0   7    8.14    0.70   1
   7   1   8    1.69    0.52   1
   2  -2   5  416.24    5.33   1
   9  -3   8   16.95    1.07   1
   7  -2   8   22.57    1.15   1
   8  -3   8    1.30    0.52   1
   3   2   6    3.28    0.40   1
  13   1   7    3.56    0.58   1
  13  -2   7   12.44    0.79   1
  11   0   8    3.71    0.59   1
  10  -3   8   38.26    1.89   1
  11  -1   8    3.78    0.63   1
   2   2   5  425.91    5.77   1
   4   0   7   20.61    1.36   1
   4  -1   7    0.24    0.30   1
   3  -3   6   89.21    2.41   1
  11   1   8    1.99    0.56   1
   7  -3   8   22.96    1.16   1
   4   1   7    1.18    0.38   1
   6   0   8   14.43    0.94   1
  11  -2   8   55.64    2.40   1
   6  -1   8   39.42    1.86   1
   4  -2   7   16.16    0.88   1
   2  -3   5    7.48    0.57   1
   6   1   8   39.75    2.13   1
   6  -2   8  110.13    2.95   1
  13  -3   7   42.38    2.37   1
  11  -3   8   28.48    1.30   1
   1   0   4   94.63    1.95   1
   1  -1   4   83.93    1.82   1
   4  -3   7   10.19    0.74   1
   6  -3   8   80.57    2.63   1
   1   1   4   83.29    1.83   1
  12  -1   8    0.25    0.48   1
  12   0   8    1.85    0.58   1
   1  -2   4   56.96    1.48   1
  12  -2   8    9.30    0.75   1
   5   0   8  113.12    2.97   1
   5  -1   8    0.60    0.39   1
  12   1   8    1.15    0.50   1
   5   1   8    0.45    0.42   1
   5  -2   8   86.06    2.61   1
   1   2   4   56.73    1.54   1
  12  -3   8    1.74    0.55   1
   9   0   9   31.83    1.88   1
   9  -1   9    1.62    0.55   1
   8  -1   9    2.92    0.55   1
   8   0   9   11.84    0.93   1
   1  -3   4    9.84    0.75   1
   5  -3   8  138.00    3.20   1
   3   0   7   22.29    0.98   1
   2   0   6  327.55    4.77   1
   9   1   9    0.96    0.53   1
   3  -1   7   27.65    1.49   1
   2  -1   6   11.85    0.70   1
   9  -2   9    1.36    0.40   1
   8   1   9    2.32    0.55   1
   8  -2   9   19.44    1.10   1
  10   0   9   32.09    2.14   1
  10  -1   9    1.55    0.60   1
   3   1   7   26.52    1.56   1
   2   1   6   10.90    0.67   1
   7   0   9   44.48    2.18   1
   7  -1   9    3.59    0.58   1
   3  -2   7   38.95    1.67   1
   2  -2   6  114.85    2.58   1
  10   1   9    2.55    0.63   1
  10  -2   9    3.25    0.64   1
   9  -3   9   -0.40    0.42   1
   7   1   9    1.97    0.53   1
   7  -2   9   50.67    2.17   1
   8  -3   9   24.93    1.25   1
   3   2   7   36.02    1.72   1
   2   2   6  117.27    2.50   1
   4   0   8   39.88    1.98   1
   4  -1   8    1.25    0.41   1
   3  -3   7  316.18    5.05   1
  10  -3   9    6.81    0.69   1
  11  -1   9    0.26    0.54   1
  11   0   9   57.54    3.30   1
   7  -3   9    2.38    0.55   1
   2  -3   6    4.90    0.44   1
   4   1   8    0.82    0.38   1
   6  -1   9    7.50    0.66   1
   6   0   9    5.11    0.61   1
   4  -2   8    0.88    0.38   1
  11  -2   9  204.27    4.76   1
  11   1   9    1.54    0.59   1
   6   1   9   10.48    0.91   1
   1   0   5    0.40    0.31   1
   6  -2   9   24.21    1.19   1
   1  -1   5   29.47    1.28   1
   4  -3   8   -0.01    0.34   1
   1   1   5   30.27    1.32   1
   0   0   2    2.84    0.22   1
   1  -2   5  137.95    2.57   1
  11  -3   9    5.10    0.66   1
   6  -3   9    4.16    0.60   1
   0  -1   2    0.49    0.14   1
   5  -1   9    0.63    0.47   1
  12  -1   9    0.16    0.35   1
   5   0   9  110.57    2.99   1
   1   2   5  142.18    2.53   1
  12   0   9  146.74    4.02   1
   1  -3   5  107.74    2.31   1
   5  -2   9   47.86    2.19   1
   5   1   9    1.10    0.46   1
  12  -2   9   19.13    1.01   1
  11  -4   9    4.24    0.62   1
   0   1   2    0.54    0.17   1
  12   1   9    0.12    0.54   1
   2   0   7   83.70    2.27   1
   2  -1   7    5.60    0.49   1
   5  -3   9    5.88    0.66   1
   3   0   8  390.92    5.57   1
   3  -1   8    2.67    0.46   1
   0  -2   2  261.40    3.27   1
   9  -1  10    1.65    0.59   1
   8  -1  10    7.43    0.69   1
   8   0  10    2.15    0.56   1
   2   1   7    6.42    0.65   1
  12  -3   9    6.40    0.69   1
   9   0  10  167.08    4.88   1
   2  -2   7  116.21    2.64   1
   3  -2   8  738.99    9.57   1
   3   1   8    0.80    0.37   1
   0   0   3    0.77    0.21   1
   9  -2  10   66.27    3.48   1
   8  -2  10   64.10    2.56   1
   8   1  10    8.52    0.74   1
   0  -1   3  333.18    4.08   1
   9   1  10    1.01    0.56   1
   7  -1  10    2.39    0.56   1
   7   0  10  271.90    5.02   1
  10  -1  10    5.53    0.66   1
  10   0  10    7.92    0.74   1
   2   2   7  114.33    2.60   1
   7  -2  10    7.89    0.69   1
   2  -3   7  135.55    2.97   1
   7   1  10    2.52    0.61   1
   3  -3   8    1.49    0.40   1
   8  -3  10    1.16    0.47   1
  10  -2  10   55.88    3.10   1
   0   1   3  345.28    4.28   1
   4  -1   9    1.72    0.45   1
   9  -3  10   81.87    2.72   1
   4   0   9  188.17    3.75   1
   1   0   6    3.93    0.39   1
   1  -1   6   68.96    2.00   1
   0  -2   3    0.18    0.16   1
  10   1  10    6.30    0.91   1
   4  -2   9   35.11    1.88   1
   4   1   9    1.21    0.44   1
   7  -3  10   26.89    1.76   1
   1   1   6   73.91    2.00   1
   1  -2   6  413.94    5.63   1
   6  -1  10   12.93    0.96   1
   6   0  10  142.61    3.33   1
  10  -3  10   -0.08    0.54   1
   6  -2  10   10.43    0.74   1
   8  -4  10    3.18    0.61   1
   6   1  10    9.71    0.73   1
   0   2   2  260.78    3.27   1
  11  -1  10   64.02    2.73   1
   4  -3   9   67.15    2.55   1
   9  -4  10    2.19    0.59   1
  11   0  10   82.32    3.35   1
  11  -2  10    1.61    0.45   1
   1   2   6  419.48    5.77   1
   1  -3   6  129.54    2.69   1
   6  -3  10   14.81    0.99   1
   0   2   3    0.52    0.19   1
   0   0   4   44.22    1.24   1
   0  -1   4   -0.08    0.28   1
  11   1  10   61.66    2.92   1
   0  -3   3    2.55    0.26   1
  10  -4  10    4.01    0.64   1
   5  -1  10   94.34    2.90   1
   5   0  10    5.53    0.62   1
   0   1   4    0.32    0.25   1
  11  -3  10  103.48    3.23   1
   0  -2   4    0.78    0.21   1
   5  -2  10    1.58    0.48   1
   2   0   8  176.48    3.48   1
   2  -1   8    3.39    0.42   1
   5   1  10   89.43    2.75   1
  11  -4  10    2.03    0.58   1
   2   1   8    3.95    0.47   1
   5  -3  10  252.12    4.36   1
   3   0   9    2.47    0.47   1
   2  -2   8    6.58    0.65   1
   3  -1   9   36.33    1.79   1
  -6   5  -3   14.03    1.21   1
  -4   3  -3  171.24    4.52   1
  -9   5  -3  106.06    4.48   1
  -2   2  -2  129.46    2.77   1
  -4   6  -2    3.20    0.64   1
 -11   6  -2   29.83    2.91   1
 -13   5  -1    3.04    0.96   1
 -10   7  -2   60.98    4.09   1
 -14   7   2   57.68    4.53   1
 -14   6   1    5.50    1.02   1
 -12   8   0   39.87    4.07   1
 -14   5   0    2.97    0.89   1
 -12   5  -2   28.37    3.63   1
 -10   5  -3  148.03    4.95   1
 -12   7  -1    7.88    1.36   1
  -8   6  -3  279.37    6.25   1
  -7   6  -3  104.18    4.05   1
  -3   5  -2    1.94    0.47   1
  -5   5  -3   43.80    2.89   1
  11   5  -3   39.26    2.10   1
  11   4  -2    0.29    0.49   1
   4   5   0   34.91    1.45   1
   4   3   1   34.00    1.33   1
  13   2  -4   45.95    2.18   1
   7   3   1    1.51    0.36   1
   2   1   1  230.09    2.84   1
  12   5  -5    6.89    0.70   1
  11   6  -4   75.18    2.60   1
  13   3  -5   25.32    1.22   1
  12   4  -3   21.75    1.16   1
  11   3  -1    4.76    0.62   1
  12   5  -4    0.63    0.51   1
  12   3  -2    0.49    0.54   1
  13   3  -4   72.53    2.86   1
   8   3   1   24.14    1.69   1
   2   4   0   23.40    0.95   1
   6   4   1  239.58    3.82   1
   5   4   1  216.40    3.46   1
  13   4  -6    2.99    0.59   1
   3   5   0    0.13    0.32   1
  13   4  -5   37.59    2.09   1
   7   4   1  140.09    3.00   1
   5   6   0    0.14    0.25   1
  11   4  -1    1.02    0.54   1
   3   3   1  144.40    2.33   1
  13   4  -7    0.98    0.56   1
  12   5  -3   22.84    1.17   1
  12   6  -5    6.61    0.73   1
  12   4  -2  211.21    4.01   1
  14   1  -5    7.25    0.70   1
  11   7  -4   36.76    2.28   1
  13   3  -3   37.26    2.27   1
   4   4   1   41.54    1.45   1
  13   4  -4    2.46    0.56   1
  10   4   0   60.78    2.42   1
   8   4   1   20.29    1.00   1
  12   6  -4   42.99    2.35   1
   4   6   0  643.85    7.74   1
   2   2   1  152.51    2.19   1
  14   2  -5   53.09    2.51   1
   6   5   1  198.83    3.83   1
   5   2   2   10.16    0.61   1
  13   5  -6    0.39    0.48   1
  13   5  -5   45.99    2.20   1
   7   5   1    2.07    0.51   1
  13   4  -3    3.87    0.62   1
   5   5   1  106.94    2.38   1
   1   3   0    1.46    0.22   1
  12   5  -2   34.44    2.18   1
  12   6  -3    0.56    0.37   1
   9   4   1   11.86    0.89   1
  14   2  -4    1.20    0.54   1
  13   5  -4   31.83    1.97   1
  14   3  -5   13.01    0.95   1
   8   5   1    8.00    0.73   1
  12   4  -1    7.73    0.71   1
   6   3   2   28.57    1.53   1
  11   4   0    0.66    0.49   1
   5   7   0   -0.10    0.28   1
   4   2   2   28.97    1.22   1
   3   4   1   17.61    1.12   1
  12   7  -4   49.61    2.34   1
   4   5   1  143.53    2.66   1
   5   3   2   10.47    0.64   1
  14   3  -4   15.60    0.86   1
  13   5  -3    1.18    0.55   1
   2   5   0   52.91    1.37   1
  13   4  -2   10.28    0.79   1
  12   6  -2    3.71    0.61   1
  13   6  -5  104.06    3.50   1
   9   5   1   14.10    0.91   1
   6   6   1   75.61    2.19   1
   7   6   1   24.83    1.40   1
  13   6  -6    0.80    0.54   1
  14   4  -5   57.34    2.81   1
  12   7  -3   60.03    2.44   1
  12   5  -1   22.14    1.14   1
  13   6  -4    0.65    0.55   1
  11   5   0    0.17    0.44   1
   3   1   2  247.51    3.30   1
   2   3   1   83.45    1.54   1
   6   4   2   23.20    1.36   1
   5   6   1  121.01    2.64   1
   7   4   2   38.75    1.80   1
  14   3  -3   13.35    0.83   1
  14   4  -4   27.63    2.14   1
   4   3   2   34.05    1.22   1
  13   5  -2    1.04    0.53   1
   5   4   2   13.25    0.69   1
   8   4   2    2.59    0.47   1
  13   6  -3   75.72    2.58   1
  10   5   1   46.08    2.30   1
  12   6  -1  101.58    3.30   1
  14   4  -3   14.25    0.85   1
   3   5   1   60.02    1.60   1
   4   6   1  322.01    4.45   1
   3   2   2  278.12    3.58   1
  13   7  -5    3.46    0.62   1
   7   7   1    4.16    0.48   1
  14   5  -4  112.56    3.80   1
   7   5   2   18.26    1.33   1
   6   5   2    8.67    0.67   1
   6   7   1   48.41    1.91   1
  13   7  -4   28.11    1.73   1
  13   6  -2   38.15    2.17   1
   8   5   2  314.68    5.02   1
  12   5   0   16.69    1.11   1
   4   4   2  141.92    2.62   1
   1   4   0    1.63    0.29   1
   5   7   1   21.44    1.27   1
   5   5   2    2.76    0.44   1
  13   5  -1    3.22    0.62   1
  13   7  -3   22.39    1.18   1
  14   5  -3    7.83    0.71   1
  11   5   1    0.11    0.48   1
   2   4   1   61.05    1.47   1
  14   4  -2    1.54    0.55   1
   9   5   2   13.26    0.92   1
   3   3   2    2.79    0.35   1
  14   6  -4   15.54    1.73   1
   7   6   2   37.92    1.67   1
  12   6   0  172.42    3.58   1
   6   6   2   14.77    1.14   1
   8   6   2    0.94    0.38   1
   1   1   1    5.96    0.43   1
  13   7  -2   13.60    1.06   1
  13   6  -1    1.31    0.56   1
   3   6   1    3.06    0.43   1
   4   7   1  167.71    3.21   1
  11   6   1   21.81    1.77   1
   6   8   1   44.73    1.95   1
  14   5  -2   30.16    1.87   1
   4   5   2   17.47    1.12   1
  13   8  -4    6.48    0.69   1
  14   6  -3   71.08    3.24   1
   9   6   2    1.86    0.48   1
   5   6   2   25.36    1.40   1
  13   8  -3    9.48    0.75   1
   5   3   3    0.46    0.27   1
   5   8   1  148.06    3.31   1
   6   4   3   44.24    1.76   1
   3   4   2   50.47    1.48   1
   7   7   2   19.38    1.02   1
   8   7   2   53.75    2.18   1
   6   7   2   83.09    2.31   1
   2   5   1  156.84    2.54   1
  14   6  -2   94.78    3.58   1
  13   7  -1    0.48    0.52   1
  10   6   2   12.06    0.94   1
   1   2   1   15.40    0.60   1
  13   8  -2   15.50    1.05   1
   2   0   2  165.71    2.32   1
   2   1   2    7.03    0.35   1
   7   5   3  123.98    2.88   1
   9   7   2    2.23    0.50   1
  14   7  -3    2.25    0.53   1
   5   4   3  595.10    7.40   1
  14   5  -1    1.18    0.54   1
  13   6   0    0.96    0.53   1
   8   5   3   -0.56    0.34   1
   4   6   2    4.03    0.49   1
  12   6   1  108.42    2.96   1
   6   5   3   12.86    0.78   1
   5   7   2   -0.41    0.35   1
   4   3   3  175.26    2.90   1
   2   2   2  134.27    2.06   1
   3   5   2    3.39    0.43   1
  10   7   2   72.04    2.58   1
   7   8   2   13.37    0.87   1
   8   8   2    0.81    0.41   1
  14   7  -2   53.78    3.08   1
  11   6   2   30.86    2.07   1
  13   9  -3    0.62    0.57   1
  14   6  -1    6.08    0.66   1
  13   8  -1   52.24    2.31   1
   7   6   3  114.63    2.86   1
   5   5   3   53.47    1.85   1
   8   6   3  278.01    4.62   1
   6   8   2   12.32    0.79   1
  12   7   1    5.17    0.62   1
  13   7   0    1.08    0.54   1
   6   6   3   30.50    1.54   1
   1   3   1   57.99    1.28   1
   4   4   3   44.77    1.61   1
   9   6   3   23.52    1.53   1
  13   9  -2    0.70    0.52   1
   2   3   2  203.47    2.90   1
   2   6   1   83.88    1.80   1
   4   7   2    2.84    0.47   1
  11   7   2    2.63    0.58   1
   5   8   2   64.11    2.03   1
  14   7  -1   68.44    3.11   1
   7   7   3   42.40    1.99   1
   8   7   3   32.52    1.92   1
   5   6   3  553.02    7.31   1
   3   6   2  133.35    2.53   1
   7   9   2    0.90    0.42   1
  13   8   0    1.28    0.57   1
   4   5   3   12.04    1.06   1
   3   2   3   65.21    1.65   1
   6   7   3   20.42    0.97   1
   9   7   3   18.80    1.06   1
  14   6   0    6.36    0.67   1
   2   4   2  325.65    4.17   1
   6   9   2   57.25    2.06   1
   1   4   1  166.42    2.46   1
   3   3   3   60.34    1.65   1
  13   7   1    0.49    0.50   1
  10   7   3   -0.28    0.42   1
  12   7   2   26.52    1.98   1
   4   8   2  376.35    5.54   1
   8   8   3   96.34    2.74   1
   7   8   3   26.73    1.60   1
  14   8  -1   10.15    0.76   1
   5   7   3    4.83    0.46   1
  13  10  -2    2.04    0.57   1
   4   6   3   46.19    1.73   1
   5   9   2  155.46    3.30   1
   9   8   3   74.59    2.53   1
  14   7   0   -0.10    0.48   1
   6   5   4  172.24    3.29   1
   3   7   2   12.47    0.91   1
   3   4   3  159.47    2.77   1
   6   8   3    3.50    0.46   1
   7  10   2   28.20    1.89   1
   5   4   4   43.08    1.73   1
   2   5   2   49.80    1.44   1
   8   6   4    2.01    0.48   1
   7   6   4    0.30    0.35   1
  13   8   1   54.19    2.40   1
  11   7   3    5.08    0.64   1
  10   8   3   57.38    2.59   1
  12   8   2  226.28    5.10   1
   6   6   4   15.81    0.90   1
   1   5   1  114.33    1.99   1
   8   9   3   11.92    0.89   1
   5   5   4   91.16    2.30   1
   3   5   3   22.46    1.06   1
   7   9   3   28.99    1.65   1
   5   8   3  119.53    2.77   1
   4   7   3    2.85    0.47   1
   9   9   3    6.18    0.63   1
  14   8   0   57.83    2.97   1
   8   7   4  133.72    3.20   1
   7   7   4   18.25    1.01   1
   6   9   3   35.92    1.94   1
  11   8   3    1.34    0.53   1
   9   7   4  206.81    3.97   1
   2   6   2   20.82    1.04   1
   5   6   4    0.21    0.32   1
   6   7   4   12.77    0.82   1
  14   7   1   70.37    2.99   1
   4   4   4   20.38    1.25   1
   3   6   3  297.60    4.32   1
   8   8   4    2.13    0.50   1
   8  10   3   89.04    2.80   1
   7   8   4  204.94    4.17   1
   5   9   3    2.69    0.41   1
   4   8   3   36.03    1.73   1
   7  10   3   26.58    1.59   1
   4   5   4   31.69    1.36   1
   9   8   4  177.57    3.86   1
  13   8   2   13.90    1.01   1
   5   7   4  411.92    5.80   1
   2   2   3   21.16    0.95   1
   6   8   4    1.73    0.42   1
  14   8   1   11.03    0.82   1
  12   8   3   53.68    3.43   1
   2   3   3   18.35    1.00   1
   6  10   3  164.65    3.61   1
   2   7   2   63.71    1.83   1
  10   8   4   -0.63    0.50   1
   2   1   3  292.49    3.84   1
   3   7   3    5.77    0.54   1
   4   6   4  254.87    4.01   1
   1   2   2  151.40    2.11   1
   8   9   4   27.37    1.78   1
   2   4   3   36.68    1.22   1
   1   3   2   66.70    1.34   1
   7   9   4  196.29    4.28   1
   9   9   4   24.47    1.22   1
  13   9   2    1.25    0.53   1
   5   8   4  129.54    2.96   1
   4   9   3  442.65    6.27   1
   3   3   4   12.47    0.65   1
   5  10   3   35.07    1.88   1
   1   1   2  175.88    2.32   1
   7  11   3   11.47    0.91   1
  12   9   3   19.01    1.11   1
  11   8   4    0.54    0.53   1
   1   4   2   34.17    1.10   1
   6   9   4    0.61    0.42   1
  10   9   4   -0.47    0.50   1
   6   6   5  151.79    3.16   1
   2   5   3   11.21    0.60   1
   3   4   4   55.14    1.72   1
   8   7   5   32.99    1.96   1
   4   7   4   62.37    2.07   1
   7   7   5    2.59    0.60   1
   3   8   3  104.60    2.47   1
   5   5   5   54.70    1.98   1
   8  10   4   63.81    2.41   1
   3   5   4  274.70    4.17   1
   9  10   4   40.92    2.23   1
   7  10   4   10.23    0.84   1
   1   5   2   68.64    1.60   1
   6   7   5    1.99    0.55   1
   2   6   3   53.44    1.65   1
  11   9   4    0.16    0.39   1
   8   8   5   64.70    2.60   1
   5   9   4   42.44    1.98   1
   5   6   5    0.81    0.49   1
   7   8   5    1.92    0.58   1
   9   8   5   14.28    1.02   1
   4   8   4    3.03    0.53   1
   3   6   4  123.68    2.59   1
   6  10   4  165.06    3.83   1
   6   8   5    8.49    0.76   1
   1   0   2  198.78    2.53   1
   5   7   5   10.93    0.80   1
   1   6   2    0.19    0.30   1
  13   9   3    0.54    0.55   1
   8  11   4   83.71    2.67   1
   8   9   5    2.62    0.55   1
   2   7   3  153.82    2.79   1
   4   5   5   10.86    0.75   1
   9   9   5    1.27    0.52   1
   7   9   5   23.52    1.14   1
   7  11   4    1.38    0.55   1
   3   7   4    1.19    0.42   1
   5  10   4    1.11    0.53   1
   4   9   4   57.08    2.09   1
  12   9   4   62.96    3.30   1
   4   6   5   98.38    2.48   1
   5   8   5  339.30    5.27   1
   6   9   5   -0.21    0.41   1
  10   9   5   16.94    1.05   1
   6  11   4  107.86    2.89   1
   8  10   5   84.78    2.87   1
  13  10   3    7.69    0.87   1
   2   8   3   39.38    1.70   1
   9  10   5   40.70    2.12   1
   3   8   4   48.05    1.98   1
   4   7   5  245.36    4.10   1
   7  10   5   17.36    1.06   1
   2   3   4   53.87    1.56   1
   2   4   4  177.29    2.96   1
   0   3   1  582.65    6.32   1
   2   5   4  182.44    3.08   1
   0   4   1    0.32    0.17   1
   5   9   5   55.27    2.14   1
  12  10   4   44.08    2.14   1
   2   2   4   20.60    1.02   1
  11   9   5   39.06    2.06   1
   7  12   4    1.12    0.56   1
   4  10   4  230.99    4.16   1
   5  11   4   11.96    0.88   1
  10  10   5   15.89    1.03   1
   6  10   5   18.68    1.04   1
   8   8   6    1.34    0.53   1
   6   7   6    7.23    0.76   1
   3   4   5  134.91    2.90   1
   1   3   3   11.14    0.51   1
   1   4   3   34.47    1.27   1
   4   8   5  255.30    4.22   1
   7   8   6    4.91    0.62   1
   2   6   4  436.24    5.65   1
   0   2   1    0.50    0.15   1
   3   5   5   20.13    1.26   1
   8  11   5   -0.47    0.46   1
   1   5   3    1.00    0.25   1
   3   9   4  194.02    3.78   1
   5   6   6    3.48    0.48   1
   9  11   5   46.29    2.23   1
   1   2   3  143.59    2.29   1
   7  11   5  200.17    3.98   1
   3   6   5   75.88    2.20   1
   6   8   6   45.98    2.07   1
   8   9   6   19.07    1.11   1
   5  10   5   54.87    2.47   1
  11  10   5    1.50    0.61   1
   1   6   3  299.97    4.34   1
   2   7   4    6.49    0.58   1
   5   7   6   -0.25    0.36   1
   9   9   6  185.81    4.29   1
   7   9   6   62.55    2.47   1
   4   9   5   22.78    1.51   1
   6  11   5    6.93    0.66   1
   3   7   5    3.66    0.46   1
   6   9   6   56.07    2.32   1
   1   1   3    5.57    0.37   1
   5   8   6   39.04    1.97   1
   8  12   5   72.18    2.51   1
   1   7   3   23.95    1.35   1
   8  10   6   69.27    2.74   1
   2   8   4    1.41    0.40   1
   4   6   6  123.50    2.96   1
   9  10   6   21.53    1.13   1
   7  10   6    1.52    0.52   1
   7  12   5    6.16    0.66   1
   3   8   5   28.98    1.54   1
   5  11   5    9.81    0.86   1
   4  10   5   18.58    1.00   1
   4   7   6    4.73    0.53   1
  12  10   5   -0.15    0.57   1
   5   9   6   39.03    2.09   1
   6  10   6    0.24    0.44   1
  10  10   6    0.83    0.54   1
   6  12   5   -0.12    0.44   1
   0   4   2  420.34    5.10   1
   8  11   6   56.42    2.59   1
   2   9   4    0.87    0.46   1
   0   5   2    0.85    0.28   1
   3   9   5    9.47    0.77   1
   2   4   5  175.40    2.96   1
   4   8   6    6.37    0.70   1
   2   5   5  706.69    8.70   1
   9  11   6   67.68    2.68   1
   7  11   6  153.94    3.49   1
   0   3   2    0.96    0.22   1
   2   3   5    8.99    0.60   1
   2   6   5   95.58    2.39   1
   5  10   6   26.33    1.70   1
   1   4   4  244.57    3.58   1
   1   5   4   91.40    2.02   1
   4  11   5    1.08    0.63   1
   7  13   5   33.15    2.05   1
   5  12   5    3.92    0.71   1
   3   5   6   78.69    2.41   1
   6  11   6   55.75    2.31   1
  12  11   5    1.11    0.57   1
  11  10   6    0.91    0.74   1
  10  11   6   55.69    2.38   1
   6   8   7   11.34    0.90   1
   1   6   4  131.10    2.68   1
   2   7   5    6.86    0.60   1
   8   9   7    1.38    0.55   1
   1   3   4   12.45    0.64   1
   4   9   6   11.06    0.84   1
   3   6   6   99.30    2.73   1
   7   9   7   42.58    2.16   1
   3  10   5   11.82    0.81   1
   5   7   7   90.65    2.66   1
   8  12   6    1.27    0.55   1
   3   7   6  277.94    4.47   1
   1   7   4   86.84    2.31   1
   7  12   6   53.11    2.35   1
   9  12   6   12.88    1.02   1
   6   9   7    8.12    0.84   1
   2   8   5   98.04    2.56   1
   0   2   2  273.72    3.27   1
   5  11   6    1.60    0.50   1
   1   2   4   58.30    1.53   1
   8  10   7   65.19    2.75   1
   5   8   7    1.77    0.51   1
   7  10   7   23.37    1.20   1
   4  10   6   76.87    2.68   1
   3   8   6    0.74    0.39   1
   9  10   7   36.92    2.11   1
   6  12   6   35.28    2.11   1
  11  11   6    0.53    0.57   1
   1   8   4  253.20    3.98   1
   6  10   7   11.70    0.95   1
   5   9   7   37.70    2.02   1
   2   9   5  121.78    2.87   1
   4   7   7    0.69    0.42   1
   0   5   3  153.71    2.64   1
   3   9   6   72.14    2.39   1
   8  11   7   -0.20    0.52   1
   8  13   6   19.80    1.23   1
   0   4   3    0.48    0.20   1
   7  11   7   46.88    2.31   1
   0   6   3   -0.01    0.25   1
   7  13   6    4.22    0.61   1
   5  12   6   80.00    2.79   1
   4  11   6   63.65    2.54   1
   4   8   7   40.61    2.07   1
   9  11   7   55.81    2.47   1
   5  10   7    1.15    0.59   1
   2   5   6    0.52    0.39   1
   6  11   7    7.17    0.69   1
   2   6   6    1.87    0.39   1
  10  11   7    5.60    0.76   1
   6  13   6   53.54    2.43   1
   2  10   5   20.25    1.01   1
   2   4   6   39.71    1.89   1
   0   3   3    2.79    0.32   1
   3  10   6  341.42    5.23   1
   1   5   5   72.26    1.99   1
   4   9   7    0.13    0.38   1
   1   6   5    0.10    0.27   1
   1   4   5    5.94    0.53   1
   2   7   6    3.47    0.45   1
  10  -3  -2   39.08    1.98   1
   8  -4  -1   15.21    1.38   1
   8  -2   0   79.14    2.30   1
   7  -3   0    1.71    0.46   1
   6  -1   1  139.88    2.89   1
   9  -3  -1   45.45    2.04   1
  11  -1  -2    0.82    0.62   1
  12   0  -3   16.02    1.03   1
  11  -3  -3   17.75    1.05   1
  12  -3  -6   10.46    0.77   1
   3  -1   1   52.94    1.33   1
   5  -4   0   -0.03    0.22   1
  11  -4  -4    0.31    0.47   1
   7  -5  -1    1.82    0.49   1
  12  -3  -7    8.58    0.85   1
  13   0  -7    6.83    0.58   1
  12  -2  -4   33.56    1.85   1
  13   0  -6  235.58    4.87   1
   9  -1   0    0.42    0.36   1
   4  -4   0    0.85    0.33   1
  13   1  -5    0.33    0.66   1
   2  -3   0   35.26    0.95   1
  12  -3  -5   19.15    1.05   1
   6  -4   0   73.46    2.02   1
  10  -2  -1   58.60    2.34   1
  12  -1  -3    8.05    0.71   1
  11  -2  -2    9.98    0.85   1
   9  -5  -2   10.88    0.85   1
   2   0   1  224.95    2.74   1
   7  -1   1  111.33    2.49   1
   5  -2   1  104.78    2.14   1
  13   0  -5   58.58    2.36   1
  10  -5  -3  145.92    3.40   1
  10  -4  -2  101.46    2.82   1
   8  -3   0   18.99    1.27   1
  13  -1  -7    5.43    0.60   1
  13  -1  -6    7.94    0.67   1
   4  -2   1   41.32    1.33   1
   6  -2   1  112.84    2.42   1
   9  -4  -1   12.28    0.84   1
   1  -2   0    0.43    0.15   1
   9  -2   0    0.31    0.35   1
   7  -4   0   -0.15    0.27   1
  12  -3  -4    6.56    0.56   1
   8  -5  -1    9.34    0.75   1
  11  -4  -3   35.51    1.98   1
   3  -4   0    0.28    0.26   1
  13  -1  -5    1.68    0.72   1
  12  -2  -3  116.89    3.20   1
  12  -4  -6   11.91    0.92   1
  10  -3  -1  111.57    2.89   1
  13   0  -4   40.94    2.06   1
  11  -3  -2    1.32    0.54   1
  11  -5  -4  261.73    4.71   1
  12  -4  -5   87.69    2.70   1
   7  -2   1  436.82    6.20   1
  13  -2  -6   29.39    1.85   1
  13  -2  -7   23.16    1.09   1
  13  -1  -4    2.20    0.61   1
  12  -1  -2    6.65    0.65   1
  13  -2  -5    9.09    0.75   1
   8  -4   0   15.93    1.36   1
  10  -5  -2   40.19    1.96   1
   9  -3   0    0.46    0.34   1
   5  -5   0    0.98    0.38   1
   3  -2   1    1.88    0.29   1
  12  -3  -3    2.28    0.53   1
   5  -3   1   55.06    1.64   1
   6  -5   0  110.69    2.48   1
  12  -4  -4   18.39    1.06   1
   6  -3   1  206.66    3.40   1
  11  -2  -1   22.75    1.81   1
   9  -5  -1   17.52    0.98   1
  11  -5  -3   38.77    2.07   1
  10  -4  -1   86.36    2.58   1
  11  -4  -2    0.03    0.45   1
   4  -5   0   35.18    1.34   1
   8  -2   1  124.35    3.18   1
  13  -2  -4   46.85    2.36   1
  12  -2  -2   40.42    2.11   1
  10  -2   0   16.10    0.95   1
   7  -5   0   -0.05    0.43   1
   4  -3   1   33.20    1.16   1
   7  -3   1    0.41    0.31   1
  13  -3  -6    2.55    0.55   1
   8  -6  -1   14.63    1.23   1
   2  -1   1  207.64    2.57   1
  13  -3  -5   24.85    1.20   1
  13  -1  -3   18.16    1.09   1
  13  -3  -7   34.73    2.72   1
  11  -3  -1    3.47    0.54   1
   9  -4   0    0.45    0.52   1
  12  -4  -3   21.94    1.12   1
   8  -5   0  101.83    2.77   1
  12  -5  -4   -0.09    0.35   1
  12  -3  -2    1.89    0.49   1
  10  -6  -2    9.02    0.82   1
  13  -3  -4   74.59    2.47   1
  10  -3   0   37.06    2.00   1
   8  -3   1   21.76    1.38   1
   2  -4   0   20.30    0.91   1
  13  -2  -3   30.45    2.32   1
  10  -5  -1   41.72    1.99   1
   6  -4   1  218.51    3.82   1
  11  -5  -2   17.93    1.03   1
   9  -2   1   34.27    1.79   1
   5  -4   1  191.99    3.17   1
   9  -6  -1   70.71    2.47   1
  14   0  -5    6.59    0.67   1
  11  -6  -3   47.03    2.27   1
  13  -4  -6    4.34    0.64   1
   6  -6   0  214.94    3.67   1
   7  -4   1  125.96    2.83   1
  11  -4  -1   -0.20    0.41   1
  13  -4  -5   37.24    1.85   1
   5  -1   2  180.86    2.98   1
   3  -3   1  135.59    2.39   1
  14  -1  -5    7.29    0.64   1
  12  -2  -1    5.31    0.64   1
   7  -6   0    0.86    0.47   1
  11  -2   0    0.74    0.45   1
  12  -5  -3   23.11    1.18   1
  12  -4  -2  194.80    3.87   1
   9  -5   0    0.25    0.40   1
  13  -3  -3   38.38    1.96   1
  10  -4   0   59.46    2.19   1
  14   0  -4   27.44    1.68   1
   4  -4   1   39.06    1.40   1
  13  -4  -4    1.56    0.54   1
   9  -3   1   52.22    2.24   1
   8  -4   1   18.45    0.94   1
   6  -2   2  545.22    6.67   1
  14  -2  -5   52.41    2.98   1
  13  -2  -2   53.15    2.28   1
   8  -6   0    2.64    0.44   1
  14  -1  -4   -0.20    0.54   1
   4  -1   2   13.33    0.90   1
  11  -6  -2   26.75    1.79   1
  12  -3  -1    1.84    0.55   1
  10  -6  -1    3.95    0.57   1
   2  -2   1  144.03    2.03   1
  11  -3   0    0.12    0.45   1
   7  -2   2   18.43    1.28   1
   5  -2   2    9.77    0.59   1
  11  -5  -1    0.58    0.65   1
   6  -5   1  185.20    3.31   1
   7  -5   1    1.40    0.47   1
  13  -4  -3    3.93    0.62   1
  13  -5  -5   45.99    2.38   1
  12  -5  -2   36.34    2.19   1
  14  -2  -4    1.02    0.53   1
   5  -5   1   96.91    2.34   1
   9  -4   1    8.03    0.61   1
  10  -5   0   85.04    2.64   1
  13  -3  -2   23.71    1.59   1
   1  -3   0    1.35    0.20   1
  12  -6  -3    1.20    0.55   1
   9  -6   0    0.92    0.44   1
  14  -3  -5   11.64    0.80   1
  13  -5  -4   32.22    1.84   1
  10  -3   1  112.30    2.89   1
  14  -1  -3    0.22    0.68   1
  12  -4  -1    7.07    0.64   1
   8  -5   1    9.21    0.73   1
   6  -3   2   24.81    1.33   1
  11  -4   0    0.34    0.44   1
   7  -3   2    2.18    0.46   1
   3   0   2  195.72    2.76   1
   4  -2   2   25.98    1.09   1
   3  -4   1   14.64    0.91   1
  14  -3  -4   16.26    2.26   1
   5  -3   2    9.19    0.58   1
  14  -2  -3   10.06    0.73   1
   4  -5   1  137.85    2.53   1
  11  -6  -1   24.66    1.80   1
  13  -2  -1   39.67    1.82   1
  13  -4  -2   11.22    0.79   1
  13  -5  -3    1.32    0.55   1
  10  -7  -1   21.66    1.73   1
   8  -7   0    4.26    0.51   1
   8  -3   2  216.94    4.02   1
   9  -5   1   15.72    0.91   1
  10  -4   1   85.53    2.65   1
  12  -6  -2    2.67    0.53   1
  10  -6   0   55.76    2.13   1
   6  -6   1   71.59    2.25   1
  12  -3   0   46.27    2.14   1
   7  -6   1   30.07    1.47   1
  14  -4  -5   57.63    2.90   1
  12  -5  -1   19.97    1.09   1
  11  -5   0    0.84    0.47   1
   3  -1   2  238.20    3.31   1
  14  -3  -3   17.59    1.05   1
  13  -3  -1    3.03    0.47   1
   7  -4   2   41.70    1.81   1
   6  -4   2   24.17    1.36   1
  13  -6  -4    0.58    0.56   1
  14  -4  -4   30.29    1.72   1
   2  -3   1   80.60    1.52   1
   8  -6   1   19.77    1.43   1
   9  -7   0    0.08    0.43   1
   5  -6   1  118.49    2.51   1
  11  -3   1    5.22    0.73   1
   9  -3   2   81.62    2.55   1
   4  -3   2   32.05    1.20   1
  13  -5  -2    0.46    0.52   1
   8  -4   2    2.80    0.45   1
   5  -4   2   11.14    0.64   1
  14  -2  -2   10.43    0.92   1
  12  -4   0   71.21    2.48   1
  10  -5   1   42.88    2.02   1
  13  -6  -3   67.30    2.22   1
  11  -7  -1    1.81    0.50   1
  13  -4  -1    0.24    0.47   1
   9  -6   1   74.16    2.36   1
  14  -4  -3   20.47    1.03   1
  12  -6  -1   94.99    3.10   1
  11  -4   1    0.74    0.47   1
  12  -7  -2   26.47    1.96   1
  11  -6   0    0.80    0.62   1
   3  -2   2  276.09    3.61   1
  10  -7   0   19.20    1.07   1
   9  -4   2   20.44    1.01   1
  14  -3  -2  120.75    4.13   1
   3  -5   1   57.50    1.60   1
   7  -5   2   20.44    1.00   1
   4  -6   1  299.00    4.15   1
   6  -5   2    7.87    0.63   1
   7  -7   1    4.91    0.66   1
  14  -5  -4  123.05    3.52   1
   6  -7   1   50.72    1.85   1
  12  -5   0   15.09    0.99   1
   8  -5   2  287.42    4.50   1
   8  -7   1    1.71    0.44   1
  13  -6  -2   34.39    2.07   1
   4  -4   2  133.68    2.46   1
  13  -5  -1    2.53    0.59   1
  10  -6   1    4.93    0.56   1
  13  -3   0   -0.24    0.47   1
   6  -2   3  195.20    3.43   1
  11  -5   1    0.38    0.46   1
   5  -5   2    1.41    0.31   1
  14  -5  -3   11.63    0.76   1
  14  -4  -2    0.52    0.49   1
  10  -4   2   96.50    2.77   1
   9  -5   2   13.46    0.88   1
   9  -7   1    4.93    0.59   1
  13  -7  -3   20.70    1.12   1
  12  -7  -1    8.63    0.81   1
   2  -4   1   63.00    1.41   1
  11  -7   0    0.77    0.46   1
   3  -3   2    2.04    0.26   1
   7  -3   3    1.78    0.38   1
  13  -4   0   -0.58    0.41   1
   5  -2   3   54.89    1.71   1
   7  -6   2   34.41    1.63   1
  12  -6   0  153.43    3.48   1
  14  -3  -1    7.19    0.73   1
  12  -4   1    5.59    0.63   1
   6  -3   3   59.33    1.89   1
  10  -8   0    0.96    0.48   1
   1  -1   1    6.94    0.43   1
   8  -3   3   29.72    1.56   1
   8  -6   2    1.37    0.40   1
   6  -6   2   21.43    1.34   1
  14  -6  -4   21.84    1.60   1
  14  -5  -2   30.67    1.92   1
  13  -6  -1    0.68    0.54   1
  11  -6   1   22.39    1.65   1
  10  -5   2   41.92    1.99   1
  10  -7   1   28.27    1.89   1
  13  -7  -2   10.85    0.80   1
   4  -5   2   18.41    1.13   1
   9  -6   2    2.49    0.48   1
  14  -6  -3   69.24    3.03   1
  14  -4  -1    0.75    0.52   1
   7  -4   3  156.79    3.16   1
   5  -3   3    0.54    0.29   1
  11  -4   2   -0.16    0.47   1
  13  -5   0    0.44    0.58   1
  12  -5   1   19.26    1.08   1
   5  -6   2   23.69    1.36   1
   8  -4   3  186.67    3.55   1
   6  -4   3   41.65    1.76   1
   2   0   2  161.58    2.38   1
   9  -8   1    1.11    0.58   1
  12  -8  -1   49.09    2.22   1
  11  -8   0    0.87    0.50   1
  12  -7   0    4.05    0.73   1
   3  -4   2   48.77    1.42   1
   7  -7   2   20.61    1.02   1
   4  -2   3  253.11    3.69   1
   9  -4   3   52.66    2.03   1
  10  -6   2   10.48    0.84   1
   2  -1   2    6.57    0.34   1
   8  -7   2   52.47    2.11   1
  14  -6  -2   83.75    3.25   1
  14  -5  -1    2.16    0.53   1
  11  -5   2   21.93    1.09   1
  11  -7   1    1.98    0.49   1
  13  -7  -1    0.97    0.52   1
   6  -7   2   74.98    2.37   1
   7  -5   3  115.18    2.69   1
   5  -4   3  569.27    6.95   1
   8  -5   3   -0.03    0.33   1
  13  -6   0    1.08    0.54   1
  12  -6   1   95.15    2.81   1
  13  -4   1   -0.18    0.64   1
   1  -2   1   13.84    0.68   1
  10  -8   1   16.30    0.98   1
   9  -7   2    2.16    0.48   1
   2  -5   1  149.15    2.62   1
   6  -5   3   11.72    0.75   1
   4  -6   2    5.86    0.53   1
   4  -3   3  178.15    3.18   1
  14  -7  -3    1.92    0.56   1
  10  -4   3    0.42    0.52   1
   9  -5   3  115.04    3.27   1
   2  -2   2  135.63    2.06   1
  14  -4   0  166.41    4.34   1
   5  -7   2    0.28    0.44   1
  11  -6   2   30.38    1.78   1
  12  -8   0   54.86    2.38   1
  10  -7   2   69.81    2.43   1
  14  -6  -1    5.38    0.55   1
  13  -5   1    4.36    0.62   1
   3  -5   2    3.58    0.42   1
   8  -6   3  258.89    4.62   1
   7  -6   3  106.27    2.65   1
   5  -5   3   48.16    1.83   1
  11  -8   1   28.20    1.91   1
   7  -8   2   12.69    0.85   1
   8  -8   2    0.87    0.44   1
  12  -7   1    7.39    0.66   1
  14  -7  -2   56.92    2.88   1
  13  -7   0    0.45    0.50   1
  12  -5   2   35.79    1.91   1
  10  -5   3  148.71    3.53   1
  13  -8  -1   48.84    2.22   1
  14  -5   0    2.94    0.59   1
   6  -6   3   26.07    1.45   1
   9  -6   3   20.80    1.09   1
   4  -4   3   45.21    1.68   1
   9  -8   2    1.25    0.47   1
   2  -3   2  203.24    2.80   1
   3  -1   3   52.57    1.44   1
  13  -6   1    1.09    0.54   1
  11  -7   2    4.34    0.58   1
   1  -3   1   58.39    1.27   1
   6  -3   4    0.35    0.30   1
  12  -6   2    4.22    0.59   1
  10  -8   2  127.92    3.11   1
  10  -6   3   19.81    1.07   1
   3  -2   3   65.20    1.70   1
  14  -7  -1   64.85    2.91   1
   8  -7   3   28.43    1.61   1
   7  -7   3   39.97    1.96   1
  11  -5   3   41.95    2.18   1
   8  -4   4    6.07    0.74   1
   7  -4   4   54.86    2.07   1
  14  -6   0    6.68    0.64   1
   5  -6   3  522.86    6.73   1
  12  -9   0   28.67    1.91   1
  12  -8   1   48.33    2.21   1
   9  -7   3   18.48    1.04   1
   4  -5   3   14.63    0.72   1
  11  -9   1   20.58    1.68   1
   3  -6   2  131.98    2.69   1
  13  -8   0    1.12    0.55   1
   6  -4   4   26.79    1.44   1
   6  -7   3   18.64    1.07   1
   3  -3   3   58.52    1.57   1
  13  -7   1    0.04    0.61   1
   9  -9   2  108.36    3.16   1
   2  -4   2  316.30    4.07   1
  13  -5   2   -0.17    0.67   1
   8  -5   4   22.24    1.45   1
   5  -3   4  728.85    9.00   1
  11  -8   2   12.57    0.92   1
   7  -5   4  361.56    5.41   1
  11  -6   3   48.63    2.33   1
  12  -7   2   28.05    1.63   1
  10  -7   3    1.15    0.49   1
  14  -5   1    1.53    0.51   1
   9  -5   4   33.09    1.97   1
  14  -7   0    0.23    0.37   1
   8  -8   3   88.59    2.56   1
  10  -9   2   20.43    1.94   1
   6  -5   4  163.35    3.25   1
  12  -5   3   19.71    1.11   1
   7  -8   3   27.04    1.76   1
   5  -7   3    7.06    0.64   1
   5  -4   4   42.60    1.59   1
  14  -8  -1   13.38    0.85   1
   1  -4   1  164.98    2.37   1
   9  -8   3   65.34    2.25   1
   3  -4   3  151.36    2.66   1
   4  -6   3   46.60    1.54   1
   8  -6   4    1.88    0.49   1
  13  -6   2   35.65    2.09   1
  12  -9   1   50.57    2.35   1
   7  -6   4   -0.47    0.32   1
  10  -5   4  133.75    3.23   1
  11  -7   3    6.30    0.62   1
  14  -6   1    6.27    0.64   1
   9  -6   4   40.02    2.04   1
   6  -8   3    3.87    0.45   1
  13  -8   1   52.13    2.24   1
   4  -2   4   35.52    1.41   1
  10  -8   3   52.95    2.31   1
  13  -9   0   -0.06    0.52   1
  12  -8   2  210.27    4.58   1
  12  -6   3    1.51    0.50   1
   2  -5   2   44.76    1.43   1
  11  -9   2    0.73    0.46   1
   6  -6   4   17.07    0.88   1
   5  -5   4   88.60    2.27   1
   4  -3   4   13.01    0.68   1
  10  -6   4    5.90    0.60   1
  13  -7   2   16.77    1.06   1
   3  -5   3   23.59    1.18   1
   8  -7   4  127.42    3.08   1
  14  -8   0   53.55    2.83   1
   8  -9   3   10.24    0.81   1
   7  -7   4   18.58    0.95   1
   9  -7   4  194.40    3.72   1
  14  -7   1   63.54    2.95   1
   7  -9   3   28.96    1.75   1
   9  -9   3   10.03    0.85   1
   5  -8   3  114.36    2.64   1
  11  -8   3    1.94    0.51   1
   4  -7   3    2.33    0.36   1
  12  -7   3   53.28    2.22   1
   4  -4   4   19.73    1.26   1
   5  -6   4    1.53    0.49   1
   6  -7   4   11.30    0.78   1
  11  -6   4   73.50    2.52   1
  10  -9   3   12.50    0.93   1
  10  -7   4   13.48    0.94   1
  12  -9   2   87.38    2.68   1
  13  -9   1    5.17    0.61   1
  11 -10   2   37.84    2.02   1
   8  -8   4    1.84    0.47   1
  13  -8   2   14.38    1.00   1
   2  -1   3  304.92    3.98   1
   3  -6   3  293.65    4.25   1
   8  -5   5    4.19    0.54   1
   2  -2   3   23.47    0.99   1
   4  -5   4   27.18    1.40   1
  13  -6   3   75.75    3.25   1
  14  -6   2   80.92    3.17   1
   9  -8   4  165.07    3.47   1
   7  -8   4  193.16    4.00   1
   6  -4   5    0.72    0.38   1
   7  -5   5   13.90    0.86   1
  14  -8   1   12.67    0.79   1
  12  -8   3   55.80    2.11   1
  11  -9   3    2.54    0.43   1
  11  -7   4   42.96    2.20   1
   2  -3   3   17.48    0.95   1
   5  -7   4  390.89    5.57   1
   9 -10   3    0.13    0.47   1
  10  -8   4   -0.43    0.44   1
   8  -6   5   24.94    1.65   1
   6  -8   4    2.19    0.41   1
   6  -5   5  281.87    4.60   1
  12  -6   4   46.86    2.21   1
   3  -2   4  464.61    5.98   1
   9  -6   5    5.62    0.59   1
   1  -2   2  155.94    2.12   1
   7  -6   5    0.54    0.39   1
   4  -6   4  252.51    3.99   1
  13  -7   3   21.16    1.14   1
   1  -1   2  182.11    2.42   1
  10 -10   3  109.67    2.98   1
  14  -7   2   59.83    2.92   1
   3  -3   4   13.66    0.67   1
   2  -4   3   37.13    1.29   1
   8  -9   4   26.08    1.78   1
  12 -10   2   25.72    1.81   1
   5  -4   5  126.36    2.84   1
   9  -9   4   25.22    1.18   1
  13  -9   2    1.78    0.55   1
   3  -7   3    7.52    0.60   1
   1  -3   2   72.88    1.47   1
  11  -8   4    0.49    0.35   1
  10  -6   5   29.09    1.31   1
  13 -10   1    2.83    0.59   1
   7  -9   4  188.54    3.65   1
   6  -6   5  144.93    3.14   1
   8  -7   5   32.85    1.77   1
  12  -9   3   22.56    1.13   1
   3  -4   4   52.85    1.60   1
  12  -7   4   46.27    2.31   1
   9  -7   5    0.82    0.46   1
   7  -7   5    1.51    0.44   1
  10  -9   4    0.89    0.49   1
   5  -8   4  118.77    2.83   1
  11 -10   3   52.20    2.32   1
   5  -5   5   58.78    2.01   1
  13  -8   3   13.19    0.94   1
   1   0   2  212.69    2.69   1
   2  -5   3   10.04    0.58   1
   6  -9   4    1.20    0.62   1
   4  -7   4   63.81    2.04   1
  10  -7   5   24.73    1.64   1
   1  -4   2   36.03    1.13   1
   3  -5   4  268.65    3.96   1
   6  -7   5    2.15    0.43   1
  14  -6   3   69.42    2.82   1
   8  -8   5   63.53    2.22   1
   5  -6   5    1.06    0.35   1
  11  -9   4    0.88    0.54   1
   4  -3   5  155.01    2.95   1
   8 -10   4   58.21    2.40   1
   9  -8   5   15.96    1.00   1
  12  -8   4   13.27    0.95   1
   9 -10   4   42.05    2.21   1
   7  -8   5    2.30    0.49   1
   7 -10   4   10.82    0.85   1
   4  -4   5  358.37    5.00   1
  13 -10   2    2.16    0.51   1
  11  -7   5   23.41    1.15   1
  10  -8   5   57.20    2.24   1
  12 -10   3    1.29    0.56   1
  10 -10   4    9.16    0.84   1
   2  -6   3   49.95    1.47   1
   5  -9   4   40.87    2.08   1
   3  -6   4  124.17    2.67   1
  14  -7   3    2.43    0.59   1
   1  -5   2   66.78    1.58   1
  13  -9   3    1.16    0.54   1
   4  -8   4    3.97    0.55   1
   7  -5   6   14.95    0.92   1
   6  -8   5    5.79    0.57   1
   4  -5   5   11.09    0.74   1
   5  -7   5   12.03    0.81   1
  13  -7   4   23.98    1.06   1
  11 -11   3   21.55    1.14   1
   8  -9   5    2.25    0.50   1
   8  -6   6   31.61    1.89   1
   9  -9   5    1.85    0.50   1
  12  -9   4   61.35    3.28   1
   9  -6   6  551.45    8.18   1
  11  -8   5  109.38    2.89   1
  11 -10   4    2.16    0.56   1
   7  -9   5   23.95    1.14   1
   7  -6   6  360.14    5.72   1
   6  -5   6    6.00    0.69   1
   4  -6   5  101.42    2.50   1
  10  -9   5   18.45    1.05   1
   9 -11   4   37.91    2.22   1
   3  -7   4    0.06    0.29   1
  12  -7   5    3.11    0.76   1
  13  -8   4   10.88    0.85   1
   8  -7   6    1.33    0.46   1
   5  -8   5  334.47    5.16   1
   9  -7   6   30.01    1.82   1
   2  -2   4   23.37    1.14   1
   2  -3   4   51.89    1.50   1
   6  -9   5    0.61    0.38   1
   6  -6   6    0.80    0.42   1
  10 -11   4   74.86    2.58   1
   7  -7   6  289.55    4.90   1
  13 -10   3    7.91    0.72   1
  12 -11   3   76.77    3.22   1
   2  -4   4  186.83    3.05   1
   8 -10   5   84.92    2.65   1
  10  -7   6    3.93    0.60   1
  11  -9   5   38.88    3.15   1
   3  -3   5   18.11    0.80   1
   4  -7   5  244.76    4.07   1
   2  -1   4    0.99    0.26   1
   9 -10   5   33.76    1.93   1
   5  -5   6  830.48   10.37   1
   3  -4   5  139.66    2.80   1
  12 -10   4   45.20    2.08   1
  12  -8   5   64.66    2.87   1
   8  -8   6    0.64    0.48   1
   7 -10   5   19.50    1.06   1
   6  -7   6    6.72    0.59   1
   9  -8   6    8.84    0.71   1
  10 -10   5   21.22    1.12   1
   2  -5   4  183.47    3.12   1
   3  -8   4   55.66    1.92   1
  13  -9   4   -0.04    0.35   1
  11 -11   4   33.31    2.76   1
   7  -8   6    7.28    0.74   1
   1  -3   3    8.42    0.46   1
   3  -5   5   23.87    1.24   1
   5  -6   6    5.14    0.51   1
   5  -9   5   48.92    2.05   1
   1  -2   3  151.00    2.26   1
  10  -8   6    0.18    0.46   1
  11  -7   6   27.79    1.60   1
   1  -4   3   35.48    1.16   1
   6 -10   5   18.79    1.04   1
   4  -8   5  242.36    4.39   1
   2  -6   4  428.58    5.55   1
   6  -8   6   47.46    2.05   1
   8  -9   6   17.66    1.04   1
   3  -6   5   75.10    2.12   1
  11 -10   5    0.60    0.57   1
  12  -9   5   54.00    2.91   1
   1  -1   3    6.96    0.38   1
   9  -9   6  172.31    3.62   1
   5  -7   6    0.46    0.41   1
   8 -11   5    0.83    0.49   1
   4  -4   6   21.58    1.43   1
   9 -11   5   48.96    2.10   1
   1  -5   3    1.16    0.31   1
   7  -9   6   57.15    2.29   1
   0  -3   1  606.81    6.53   1
  11  -8   6   29.82    2.09   1
   4  -5   6   45.51    1.81   1
  10  -9   6   35.82    2.17   1
   0  -2   1    0.19    0.12   1
  12 -11   4    0.65    0.67   1
  10 -11   5   10.35    0.90   1
   3  -7   5    4.50    0.46   1
   7  -6   7    4.28    0.57   1
   2  -7   4    7.67    0.58   1
  13  -8   5    0.22    0.56   1
   0  -4   1    0.28    0.23   1
   4  -6   6  119.96    2.82   1
   6  -9   6   50.61    2.14   1
   4  -9   5   26.67    1.64   1
   5  -8   6   41.53    2.03   1
   1  -6   3  301.22    4.34   1
   8  -7   7    0.89    0.55   1
   8 -10   6   61.61    2.35   1
   9 -10   6   26.35    4.00   1
   9  -7   7   63.03    2.31   1
  12 -10   5    0.03    0.38   1
   7  -7   7    1.87    0.49   1
  11  -9   6    1.60    0.59   1
   7 -10   6    0.72    0.48   1
   6  -6   7   21.78    1.65   1
  11 -11   5    3.59    0.61   1
   4  -7   6    5.12    0.51   1
   1   0   3  334.51    4.15   1
  10 -10   6    0.69    0.56   1
   3  -8   5   27.56    1.50   1
   8  -8   7   74.99    2.63   1
  12  -8   6   10.55    0.80   1
   2  -3   5    7.71    0.58   1
   9  -8   7  153.86    3.51   1
   2  -4   5  178.58    3.17   1
   5  -9   6   35.78    2.08   1
   6  -7   7   16.41    0.96   1
   7  -8   7  112.27    3.01   1
   6 -10   6    0.85    0.47   1
   5  -5   7    9.91    0.77   1
   2  -2   5  440.38    5.84   1
   2  -5   5  697.54    8.51   1
   3  -4   6  217.85    3.92   1
  10 -12   5    0.13    0.62   1
   4  -8   6    6.29    0.66   1
  10  -8   7    0.20    0.56   1
   8 -11   6   47.59    2.49   1
   5  -6   7   43.48    2.00   1
   3  -5   6   80.68    2.29   1
   9 -11   6   60.98    2.51   1
  11 -10   6    1.77    0.53   1
   8  -9   7    1.79    0.50   1
   6  -8   7   11.91    0.86   1
   2  -6   5   94.08    2.30   1
   1  -4   4  237.41    3.44   1
   7 -11   6  152.94    3.52   1
   9  -9   7   10.39    0.86   1
   1  -3   4   11.74    0.63   1
  12  -9   6    5.44    0.77   1
  12 -11   5    2.78    0.65   1
   3  -6   6   91.61    2.43   1
   7  -9   7   40.06    2.23   1
  10 -11   6   46.82    2.98   1
   5  -7   7   83.51    2.58   1
   1  -5   4   90.82    2.15   1
   5 -10   6   24.72    1.90   1
   0  -4   2  436.77    5.24   1
   1  -2   4   59.95    1.61   1
   0  -3   2    0.41    0.16   1
  11 -12   5    6.71    0.67   1
  10  -9   7    6.69    0.67   1
   4  -9   6   10.35    0.80   1
   2  -7   5    5.95    0.59   1
  11  -8   7    3.00    0.80   1
   6 -11   6   46.09    2.25   1
   3  -7   6  273.38    4.37   1
   6  -9   7    6.53    0.64   1
   1  -6   4  130.32    2.62   1
   4  -5   7  146.50    3.17   1
   8 -10   7   59.39    2.50   1
   5  -8   7    0.98    0.43   1
   9 -10   7   34.77    2.21   1
   0  -2   2  276.73    3.39   1
  12 -10   6   -0.47    0.33   1
  11 -11   6    0.64    0.48   1
   8 -12   6   -0.57    0.70   1
   4  -6   7  189.40    3.63   1
   7 -10   7   25.79    1.20   1
   1  -1   4   85.60    1.80   1
   9 -12   6   17.35    1.05   1
   2  -8   5   94.22    2.54   1
   3  -8   6    0.99    0.39   1
  11  -9   7   16.08    0.88   1
  10 -10   7   37.12    3.20   1
   1  -7   4   88.50    2.22   1
   4  -7   7    0.52    0.42   1
   7  -7   8   21.12    1.10   1
   5  -9   7   33.90    1.94   1
   4 -10   6   75.34    2.48   1
   6 -10   7   13.84    0.94   1
  10 -12   6    1.62    0.57   1
   8  -8   8    0.69    0.51   1
   8 -11   7    0.29    0.48   1
   9  -8   8  201.79    4.85   1
   2  -4   6   40.29    1.67   1
   6  -7   8   77.53    2.51   1
   7  -8   8   32.54    2.05   1
   9 -11   7   48.13    3.58   1
   4  -8   7   41.99    1.84   1
   2  -5   6    1.25    0.34   1
   2  -3   6    4.42    0.44   1
   7 -11   7   44.57    2.32   1
   3  -9   6   65.14    2.30   1
  11 -10   7   14.60    0.97   1
   2  -6   6    1.11    0.34   1
   3  -4   7   43.21    2.13   1
   0  -4   3    0.37    0.25   1
   0  -1   2    0.53    0.17   1
   8  -9   8    1.10    0.50   1
   3  -5   7  518.45    7.03   1
   1  -4   5    6.79    0.53   1
   5  -6   8   34.74    1.81   1
   6  -8   8   25.31    1.20   1
   5 -10   7   -0.32    0.43   1
  10 -11   7    6.83    0.61   1
   0  -5   3  164.91    2.67   1
   1  -5   5   70.58    1.99   1
  11 -12   6    8.98    0.87   1
   9  -9   8  128.63    4.18   1
   7  -9   8  232.49    4.32   1
   0  -3   3    2.96    0.32   1
   3  -6   7    1.02    0.39   1
   1  -3   5  111.89    2.43   1
   6 -11   7    8.57    0.68   1
   4  -9   7    0.05    0.40   1
   2  -7   6    3.38    0.43   1
   5  -7   8   88.55    2.65   1
   1  -6   5    1.02    0.31   1
   3  -7   7   44.78    1.91   1
   6  -9   8    1.22    0.48   1
   1  -2   5  147.12    2.73   1
   8 -12   7   11.98    0.79   1
  10  -9   8    3.37    0.61   1
   8 -10   8   29.50    2.11   1
   5  -8   8    0.33    0.43   1
   0  -2   3    0.19    0.17   1
   7 -12   7   47.23    2.37   1
   1  -7   5    0.69    0.31   1
  10 -13   6   79.62    2.96   1
   9 -12   7   23.51    1.20   1
   7 -10   8   55.39    2.58   1
   2  -8   6   21.31    0.99   1
   9 -10   8    8.86    0.78   1
   5 -11   7    0.59    0.43   1
   3  -8   7   10.41    0.80   1
   4  -6   8  241.89    4.21   1
   4 -10   7   23.70    1.48   1
   6 -12   7   12.01    0.78   1
   6 -10   8    1.90    0.52   1
  10 -12   7   26.64    1.21   1
   5  -9   8    4.96    0.59   1
   4  -7   8   15.09    0.93   1
  10 -10   8    8.78    0.73   1
   2  -9   6    0.24    0.36   1
  11  -9   8    4.45    0.62   1
   8 -11   8    9.10    0.74   1
   3  -9   7    2.04    0.44   1
   0  -5   4    0.60    0.37   1
   0  -4   4  891.49   10.20   1
   7 -11   8  117.92    3.33   1
   4  -8   8   -0.08    0.42   1
   9 -11   8  183.26    4.32   1
   2  -5   7   17.13    0.93   1
   2  -4   7   83.46    2.48   1
   0  -6   4  738.21    8.84   1
   0  -1   3  377.08    4.49   1
   7  -8   9    6.45    0.66   1
   0  -3   4    0.73    0.25   1
   2  -6   7   34.97    1.61   1
   8 -13   7    2.20    0.62   1
   4 -11   7    0.99    0.55   1
   5 -10   8   58.73    2.30   1
   1  -5   6   82.40    2.29   1
   1  -4   6   51.29    1.75   1
   6 -11   8   36.65    2.17   1
   1  -6   6  148.79    3.09   1
   9 -13   7   16.39    0.89   1
   2  -7   7  128.94    3.09   1
   4  -9   8    0.75    0.45   1
   6  -8   9   91.51    2.72   1
   3  -5   8    0.12    0.37   1
  10 -11   8    7.85    0.73   1
   1  -3   6  140.20    2.84   1
   8  -9   9    6.74    0.67   1
   3 -10   7    5.26    0.58   1
   3  -6   8    3.19    0.51   1
   7  -9   9   19.90    1.04   1
   1  -7   6   28.31    1.57   1
   0  -2   4    0.82    0.24   1
   0   0   2    2.63    0.20   1
   3  -7   8   43.19    2.09   1
   5  -7   9    1.19    0.56   1
   2  -8   7   22.40    1.62   1
   9  -9   9    1.31    0.62   1
   8 -12   8    5.83    0.69   1
   7 -12   8    1.62    0.62   1
   6  -9   9    2.04    0.55   1
   5 -11   8   43.84    2.40   1
   9 -12   8   13.15    0.81   1
   5  -8   9   12.91    0.94   1
   4 -10   8    4.58    0.57   1
   3  -8   8  367.72    5.44   1
   1  -8   6    3.50    0.55   1
   8 -10   9    6.41    0.73   1
   7 -10   9    5.76    0.65   1
  10  -9   9    0.48    0.52   1
   9 -10   9   22.00    1.12   1
   6 -12   8    1.06    0.40   1
   2  -9   7    0.03    0.41   1
   0  -5   5    3.31    0.38   1
   0  -4   5    0.17    0.23   1
   0  -6   5    0.24    0.23   1
  -6   5  -3   12.91    1.21   1
  -4   3  -3  172.93    4.07   1
  -9   5  -3  112.87    4.57   1
  -2   2  -2  132.76    2.96   1
  -4   6  -2    3.99    0.76   1
 -11   6  -2   29.63    2.80   1
 -13   5  -1    5.99    1.12   1
 -10   7  -2   63.54    3.65   1
 -14   7   2   63.58    4.47   1
 -14   6   1    6.56    1.02   1
 -12   8   0   48.40    3.52   1
 -14   5   0    3.97    1.24   1
 -12   5  -2   42.34    3.37   1
 -10   5  -3  150.43    4.85   1
 -12   7  -1    6.60    1.03   1
  -8   6  -3  261.42    6.01   1
  -7   6  -3  109.44    3.91   1
  -3   5  -2    2.21    0.47   1
  -5   5  -3   44.92    2.88   1
   8   2   0   88.71    2.42   1
   5   1   1   12.11    0.62   1
   6   0   1    1.63    0.41   1
  12   2  -4   31.99    1.99   1
  10   4  -2  107.65    3.22   1
  10   1  -1    3.90    0.51   1
  11   1  -2    1.66    0.49   1
   7   4   0    0.05    0.33   1
   9   4  -1   11.72    0.84   1
   6   1   1  152.03    2.89   1
  13  -1  -6    7.30    0.69   1
  11   4  -3   29.33    2.02   1
   3   1   1   58.36    1.40   1
   9   0   0    0.51    0.38   1
  13   0  -6  224.61    4.33   1
   8   3   0   23.19    1.44   1
  10   2  -1   59.96    2.22   1
  13   1  -7    3.20    0.50   1
  11   2  -2    7.38    0.66   1
  12   0  -3   14.39    1.01   1
  12   4  -5   91.80    3.05   1
  12   3  -4   14.23    1.00   1
   5   2   1  111.39    2.26   1
   4   2   1   45.59    1.37   1
  13   1  -6    8.52    0.69   1
   9   1   0    0.14    0.36   1
  12   1  -3    8.04    0.69   1
   7   0   1  389.02    5.58   1
  13  -1  -5    0.31    0.61   1
   6   2   1  125.43    2.69   1
  13   0  -5   62.79    2.54   1
  13   2  -7   19.73    1.08   1
  11   3  -2    0.22    0.45   1
  12   2  -3  122.84    3.07   1
  10   3  -1  117.43    3.09   1
   9   2   0    0.59    0.37   1
  13   2  -6   30.55    1.28   1
   7   1   1  116.55    2.65   1
  13   1  -5    0.31    0.53   1
  12   4  -4   15.41    1.03   1
   8   4   0   20.30    0.98   1
   3   2   1    1.43    0.24   1
   5   3   1   56.18    1.73   1
  13   2  -5    8.27    0.75   1
   2  -1   1  220.58    2.78   1
  12   3  -3    1.61    0.55   1
   7   2   1  478.82    6.28   1
  11   0  -1  124.61    3.28   1
   4   3   1   33.35    1.34   1
   9   3   0    0.15    0.34   1
  13  -1  -4    3.01    0.71   1
  13   0  -4   47.18    2.14   1
   6   3   1  226.57    3.68   1
  13   3  -7   39.37    2.60   1
   2   0   1  232.95    2.88   1
  11   4  -2    0.54    0.45   1
  10   4  -1   88.91    2.77   1
  11   1  -1   39.19    2.16   1
  13   3  -6    3.68    0.61   1
   8   0   1  657.86    8.58   1
  12   0  -2  133.59    3.20   1
  13   1  -4    1.73    0.54   1
  10   0   0  530.53    7.57   1
  12   1  -2    7.33    0.68   1
   8   1   1    3.68    0.46   1
  11   2  -1   31.04    1.65   1
  13   3  -5   24.55    1.22   1
  10   1   0   27.64    1.61   1
  13   2  -4   52.52    2.25   1
   7   3   1    0.17    0.30   1
  12   4  -3   21.71    1.17   1
  12   2  -2   48.81    2.48   1
   9   4   0    0.43    0.40   1
   8   2   1  129.07    3.00   1
  10   2   0   16.74    0.96   1
   2   1   1  213.66    2.67   1
   5   4   1  207.41    3.30   1
  13   4  -6    3.24    0.61   1
  11   3  -1    5.34    0.58   1
  10   5  -1   42.74    1.99   1
   6   4   1  237.29    3.77   1
  13   0  -3   15.64    0.92   1
   3   3   1  141.61    2.32   1
  13   3  -4   80.49    2.62   1
  13   1  -3   14.19    0.96   1
  12   3  -2    0.72    0.50   1
  13   4  -5   39.89    2.41   1
   9   0   1  121.46    2.94   1
  10   3   0   29.08    1.70   1
   4   4   1   37.02    1.38   1
   8   3   1   18.82    1.47   1
   7   4   1  135.91    2.98   1
   9   1   1   72.90    2.37   1
  13   2  -3   43.67    2.30   1
  11   4  -1   -0.15    0.47   1
   9   5   0    0.73    0.43   1
  12   0  -1    1.70    0.56   1
   9   2   1   37.41    1.69   1
  13   4  -4    1.57    0.53   1
  11   0   0    0.53    0.44   1
  12   4  -2  211.11    3.98   1
  12   1  -1   -0.01    0.44   1
  13   3  -3   37.58    1.95   1
  11   1   0    0.61    0.46   1
  10   4   0   58.36    2.38   1
  14   0  -5    6.37    0.64   1
   6   0   2   57.62    1.92   1
  14  -1  -5    6.21    0.68   1
   2   2   1  151.66    2.26   1
   8   4   1   20.33    0.99   1
  14   1  -5    6.91    0.66   1
   5   0   2  383.79    5.13   1
  12   2  -1    4.54    0.60   1
  13   0  -2    3.97    0.62   1
  11   2   0    0.01    0.41   1
   9   3   1   50.18    2.10   1
   6   1   2    2.33    0.35   1
  13   1  -2    3.65    0.58   1
   7   0   2   70.96    2.20   1
   5   1   2  186.43    3.08   1
  11   5  -1    0.71    0.65   1
  14   2  -5   53.93    2.16   1
  10   0   1    2.82    0.47   1
   3   4   1   17.60    0.65   1
  12   3  -1    0.95    0.50   1
   7   1   2  129.50    2.88   1
  13   2  -2   57.59    2.48   1
  14   0  -4   25.46    1.81   1
  12   5  -2   33.31    1.99   1
  10   1   1    3.89    0.53   1
  13   4  -3    4.17    0.63   1
  11   3   0    0.22    0.42   1
  14   1  -4    0.84    0.67   1
   6   2   2  588.02    7.22   1
   4  -1   2   12.67    0.60   1
   4   0   2  190.20    2.89   1
  10   5   0   86.73    3.05   1
   5   2   2   11.77    0.65   1
  10   2   1   61.99    2.23   1
   9   4   1    9.83    0.78   1
   7   2   2   22.08    1.28   1
  14   2  -4    0.64    0.42   1
   8   5   1    7.75    0.70   1
   8   0   2   19.59    0.98   1
  14   3  -5   15.06    0.99   1
   4   1   2   12.71    0.65   1
  13   3  -2   26.34    1.84   1
   8   1   2   44.23    1.77   1
  12   4  -1    6.38    0.66   1
  11   4   0   -0.12    0.43   1
  10   3   1  121.79    3.06   1
   6   3   2   26.24    1.37   1
   8   2   2   31.86    1.56   1
  14   0  -3  334.90    5.73   1
  13   5  -3    0.60    0.69   1
   7   3   2    1.81    0.35   1
  14   3  -4   16.79    0.88   1
  14   1  -3    2.28    0.70   1
   2   3   1   84.85    1.53   1
  12   1   0  139.88    3.36   1
   5   3   2   10.34    0.64   1
   4   2   2   28.18    1.30   1
  13   0  -1   17.60    1.04   1
  13   4  -2   12.71    0.89   1
  13   1  -1   30.36    2.18   1
   9   5   1   15.99    0.98   1
  14   2  -3    9.18    0.71   1
  12   2   0   69.76    2.55   1
  14   4  -5   55.75    2.76   1
   9   0   2  125.93    3.17   1
  11   1   1   42.33    2.21   1
   9   1   2    0.67    0.40   1
  10   4   1   90.82    2.74   1
   8   3   2  235.04    4.06   1
  12   5  -1   23.01    1.23   1
  13   2  -1   40.61    2.10   1
  11   5   0    0.18    0.51   1
   6   4   2   25.96    1.37   1
  11   2   1   30.06    1.61   1
  12   3   0   53.80    2.42   1
   9   2   2    9.15    0.78   1
   7   4   2   44.25    1.85   1
  14   3  -3   18.20    1.06   1
  14   4  -4   21.97    0.98   1
   3   0   2  206.71    3.01   1
  13   3  -1    5.50    0.67   1
   3  -1   2  239.87    3.36   1
   4   3   2   32.17    1.33   1
   5   4   2   12.34    0.68   1
  13   5  -2    1.42    0.73   1
  14   0  -2    3.66    0.65   1
  11   3   1    3.64    0.55   1
   8   4   2    3.29    0.46   1
  14   1  -2    1.32    0.55   1
   9   3   2   86.26    2.60   1
   3   1   2  245.10    3.28   1
  10   5   1   41.30    2.15   1
  12   4   0   80.05    2.59   1
  14   2  -2    7.89    0.73   1
  10   1   2    1.01    0.46   1
  13   4  -1    0.44    0.48   1
  14   4  -3   23.69    1.13   1
   6   5   2    5.24    0.46   1
   7   5   2   19.12    0.98   1
  11   4   1   -0.26    0.44   1
  10   2   2  276.03    4.76   1
  14   5  -4  119.32    3.37   1
  14   3  -2  122.32    3.51   1
   3   2   2  278.82    3.66   1
   9   4   2   22.49    1.10   1
  13   1   0    0.28    0.42   1
   4   4   2  141.79    2.55   1
  12   1   1    0.91    0.44   1
   8   5   2  311.12    4.86   1
  12   5   0   15.94    1.05   1
  13   2   0    0.38    0.48   1
  10   3   2   41.51    1.92   1
  12   2   1    4.83    0.60   1
   7   0   3  402.71    5.72   1
   6   0   3  384.01    5.43   1
  13   5  -1    4.84    0.74   1
   7   1   3    0.63    0.33   1
   6   1   3   24.71    1.22   1
  14   5  -3   10.51    0.75   1
  11   5   1    0.01    0.41   1
  14   4  -2    0.30    0.50   1
  13   3   0    0.60    0.55   1
  14   1  -1    2.17    0.57   1
  12   3   1    0.69    0.48   1
   7   2   3  300.05    4.78   1
   1   0   1  207.22    2.45   1
   9   5   2   11.83    0.86   1
   8   1   3   26.38    1.64   1
   6   2   3  206.68    3.55   1
  14   2  -1   28.96    1.31   1
  11   1   2    0.73    0.47   1
   3   3   2    1.94    0.30   1
  10   4   2  109.66    2.98   1
   5   0   3  487.33    6.24   1
   8   2   3  449.49    6.17   1
  11   2   2    6.23    0.63   1
   5   1   3   26.98    1.35   1
  13   4   0   -0.38    0.45   1
   7   3   3    2.08    0.39   1
  14   3  -1    6.94    0.70   1
  12   4   1    5.80    0.64   1
   1   1   1    6.20    0.37   1
   6   3   3   61.13    2.04   1
   9   1   3    1.49    0.44   1
  11   3   2   -0.86    0.41   1
   5   2   3   56.16    1.68   1
   8   3   3   34.25    1.67   1
  14   5  -2   32.49    1.86   1
   9   2   3   25.37    1.52   1
  10   5   2   42.76    2.04   1
  14   4  -1    1.02    0.52   1
  13   1   1   28.19    1.90   1
   7   4   3  168.10    3.33   1
  13   5   0    0.66    0.54   1
  11   4   2    0.64    0.49   1
   9   3   3    1.62    0.44   1
   5   3   3    1.05    0.29   1
  12   5   1   21.97    1.18   1
  13   2   1   46.99    2.36   1
   3   4   2   52.12    1.93   1
   8   4   3  191.60    3.73   1
   6   4   3   41.24    1.83   1
  15   1  -2    2.69    0.57   1
  10   1   3   57.47    2.12   1
   4   0   3   10.36    0.60   1
  15   2  -2    8.68    0.80   1
  14   1   0   34.36    2.04   1
  12   1   2    7.04    0.66   1
   4   1   3   59.56    1.71   1
  13   3   1    5.29    0.63   1
  10   2   3  160.03    3.45   1
  14   2   0   21.79    1.16   1
  12   2   2   43.48    2.13   1
   9   4   3   57.42    2.22   1
  10   6   2    7.45    0.66   1
   2   0   2  166.52    2.27   1
  11   5   2   19.78    1.07   1
   4   2   3  258.45    3.73   1
   1   2   1   13.27    0.72   1
  14   5  -1    3.07    0.71   1
  10   3   3   12.08    0.89   1
  14   3   0    0.68    0.55   1
   2   1   2    7.39    0.57   1
   7   5   3  122.27    2.92   1
  12   3   2    0.83    0.48   1
   5   4   3  589.72    7.37   1
   8   5   3    0.75    0.40   1
  12   6   1  111.74    3.32   1
  13   4   1    1.44    0.50   1
  13   6   0    0.44    0.68   1
   6   5   3   12.13    0.76   1
   2  -1   2    6.60    0.36   1
  10   4   3    1.14    0.45   1
  12   4   2  206.91    3.92   1
   4   3   3  180.04    3.02   1
  11   1   3    9.12    0.75   1
   9   5   3  122.68    3.03   1
  14   4   0  164.34    4.62   1
   2   2   2  130.35    2.03   1
  11   2   3   15.76    0.99   1
  15   1  -1    1.04    0.55   1
  15   2  -1   14.47    0.96   1
  11   6   2   32.44    2.01   1
  13   5   1    3.33    0.66   1
  11   3   3   18.36    1.07   1
   5   5   3   49.02    1.92   1
   7   1   4  120.48    2.87   1
  15   3  -1   10.18    0.73   1
   8   1   4  179.52    3.49   1
  13   1   2    3.38    0.57   1
  12   5   2   38.12    2.21   1
  10   5   3  152.88    3.41   1
   7   2   4  225.10    3.92   1
   8   2   4   52.13    2.02   1
  13   2   2   50.93    2.36   1
  14   1   1    1.35    0.58   1
   4   4   3   46.40    1.61   1
  14   5   0    2.65    0.57   1
   6   0   4  617.11    7.84   1
   6   1   4   15.41    0.87   1
  14   2   1   33.13    1.35   1
   9   6   3   22.24    1.09   1
  11   4   3   38.93    1.97   1
   9   1   4    1.37    0.42   1
   2   3   2  197.10    2.73   1
   6   2   4  225.44    3.79   1
   7   3   4    1.85    0.38   1
  13   3   2   28.67    1.78   1
   8   3   4  157.31    3.39   1
   9   2   4   49.98    2.12   1
  14   3   1    7.17    0.71   1
   1   3   1   55.88    1.16   1
   3   0   3  114.43    2.08   1
   3   1   3   51.71    1.41   1
  13   6   1    1.31    0.75   1
   9   3   4  112.92    2.99   1
  12   2   3  113.18    3.13   1
   6   3   4    0.83    0.32   1
  12   6   2    4.14    0.60   1
  10   6   3   22.13    1.16   1
  13   4   2   16.25    1.01   1
  11   5   3   40.83    2.07   1
   3   2   3   66.93    1.65   1
   8   4   4    4.72    0.55   1
  10   1   4   19.00    1.88   1
   3  -1   3   51.98    1.41   1
   7   4   4   66.62    2.26   1
  15   1   0    1.70    0.52   1
  14   4   1    1.52    0.53   1
  12   3   3    1.65    0.52   1
   5   1   4    2.88    0.35   1
   5   0   4    1.88    0.33   1
  10   2   4    4.50    0.60   1
  15   2   0    0.06    0.54   1
  14   6   0    5.88    0.64   1
   9   4   4  205.68    3.91   1
   5   2   4    8.21    0.60   1
  15   3   0    0.14    0.38   1
  10   3   4   19.36    1.05   1
   6   4   4   26.20    1.63   1
  12   4   3   20.62    1.09   1
   3   3   3   59.61    1.62   1
  13   5   2   -0.19    0.57   1
   2   4   2  320.17    4.20   1
   5   3   4  731.60    9.04   1
   8   5   4   25.86    1.59   1
   7   5   4  377.83    5.46   1
  14   5   1    1.34    0.53   1
  11   6   3   47.49    2.37   1
  10   4   4   41.20    2.26   1
   9   5   4   36.22    2.02   1
  11   2   4   54.60    2.41   1
  12   5   3   23.47    1.22   1
  14   2   2   10.45    0.90   1
   6   5   4  177.32    3.38   1
  11   3   4  156.74    3.41   1
  13   2   3   37.83    2.20   1
   5   4   4   44.23    1.80   1
   3   4   3  158.11    2.65   1
  14   3   2  123.49    3.42   1
  10   5   4  142.28    3.47   1
  13   6   2   35.10    1.93   1
   8   6   4    3.47    0.67   1
  13   3   3   33.74    1.94   1
   4   1   4    8.97    0.60   1
   4   0   4   88.64    2.11   1
  11   4   4    0.43    0.48   1
   4   2   4   36.98    1.42   1
   9   6   4   32.84    1.87   1
  14   6   1    4.87    0.63   1
  15   2   1    9.74    0.75   1
  14   4   2    2.01    0.54   1
  12   6   3    0.33    0.47   1
  13   4   3    4.43    0.63   1
   8   1   5    0.54    0.43   1
  15   3   1   11.17    0.89   1
   8   2   5  234.22    4.12   1
   7   1   5   84.87    2.65   1
  12   2   4   32.52    2.11   1
   5   5   4   81.93    2.25   1
   4   3   4   12.27    0.68   1
   7   2   5    4.45    0.50   1
   9   1   5   21.14    1.07   1
  10   6   4    5.09    0.59   1
  11   5   4  266.79    5.12   1
   9   2   5   15.64    0.99   1
   8   3   5   49.52    2.08   1
  12   3   4   13.77    0.97   1
   7   3   5   96.57    2.64   1
   9   3   5   22.81    1.79   1
  14   5   2   27.80    1.96   1
  13   5   3    1.89    0.56   1
   6   1   5   10.27    0.75   1
   6   2   5    2.45    0.42   1
  12   4   4   15.50    0.97   1
   8   4   5    1.51    0.44   1
  10   2   5   20.21    1.09   1
   4   4   4   20.38    1.20   1
   9   4   5   21.77    1.14   1
   7   4   5  151.83    3.30   1
  10   3   5   48.57    2.27   1
   6   3   5   43.19    1.80   1
  11   6   4   75.53    2.66   1
   2   1   3  296.35    3.77   1
  12   5   4    0.90    0.48   1
  14   2   3    8.57    0.71   1
  10   4   5   22.46    1.19   1
   8   5   5    3.16    0.47   1
   2   0   3  628.31    7.17   1
  13   6   3   69.61    3.30   1
   2   2   3   22.84    0.99   1
   9   5   5    1.86    0.53   1
   6   4   5    1.54    0.37   1
  14   6   2   91.33    3.29   1
  14   3   3   15.65    0.99   1
  11   2   5  400.35    6.86   1
   7   5   5   13.69    0.89   1
  13   2   4   51.79    2.35   1
   5   1   5   32.25    1.57   1
   4   5   4   27.16    1.41   1
   5   2   5  262.88    4.27   1
  11   3   5    2.34    0.54   1
   5   0   5  200.29    3.54   1
  13   3   4   75.56    2.52   1
  14   4   3   21.71    1.09   1
  10   5   5    4.93    0.62   1
   3   1   4  100.50    2.17   1
   2   3   3   18.24    0.93   1
   5   3   5   36.20    1.50   1
   3   2   4  450.25    5.77   1
   2  -1   3  297.78    3.92   1
  12   6   4   48.62    2.13   1
  11   4   5    2.63    0.55   1
   3   0   4   31.12    1.25   1
   8   6   5   27.70    2.00   1
   1   1   2  173.49    2.27   1
   6   5   5  283.89    4.52   1
  13   4   4    2.72    0.58   1
   9   6   5    4.85    0.59   1
   7   6   5    1.69    0.47   1
   3   3   4   12.86    0.65   1
   1   2   2  152.39    2.21   1
  14   5   3   10.29    0.75   1
   5   4   5  122.94    2.91   1
  13   7   3   21.08    1.97   1
   1   0   2  199.93    2.56   1
  12   2   5    2.98    0.58   1
  11   5   5   20.17    1.12   1
  10   6   5   26.16    1.87   1
  13   5   4   29.93    1.78   1
  12   3   5   17.31    1.01   1
   2   4   3   38.00    1.33   1
   8   2   6   18.12    1.04   1
   6   6   5  145.84    3.08   1
   3   4   4   53.63    1.70   1
  12   7   4   48.23    2.21   1
   9   2   6   26.50    1.98   1
  12   4   5   91.61    2.75   1
   8   3   6    3.29    0.49   1
   1   3   2   64.87    1.31   1
   5   5   5   56.39    2.02   1
   7   1   6    5.17    0.62   1
   4   1   5    3.63    0.47   1
   7   2   6    3.66    0.49   1
   9   3   6    6.57    0.68   1
   4   2   5   77.92    2.00   1
  11   6   5    0.30    0.48   1
   7   3   6   99.29    2.68   1
   4   0   5   39.69    1.52   1
  14   6   3   67.53    3.10   1
  10   2   6    0.51    0.52   1
   8   4   6    3.90    0.52   1
   4   3   5  154.11    3.03   1
   9   4   6  152.53    3.51   1
  13   6   4   -0.24    0.52   1
  10   3   6   75.73    3.00   1
  14   2   4    0.14    0.49   1
  12   5   5    6.55    0.67   1
  14   3   4   21.09    1.06   1
   7   4   6  113.03    2.88   1
   6   1   6    4.77    0.50   1
   6   2   6  233.08    4.30   1
   1  -1   2  175.59    2.39   1
  10   4   6   -0.09    0.47   1
   6   3   6   33.64    1.60   1
   4   4   5  363.50    5.04   1
  14   4   4   30.20    2.05   1
   8   5   6   13.69    0.91   1
   9   5   6   46.15    2.28   1
  13   2   5    7.99    0.77   1
  11   2   6   -0.59    0.47   1
  13   3   5   23.27    1.16   1
  11   7   5   21.87    1.19   1
  11   3   6   94.42    3.04   1
   7   5   6   14.27    0.90   1
  12   6   5    8.91    0.91   1
   6   4   6   -0.21    0.37   1
  10   5   6    8.96    0.88   1
  14   7   3    1.31    0.56   1
  13   4   5   36.74    2.12   1
  11   4   6  165.88    3.76   1
  13   7   4   30.33    1.95   1
  14   5   4  122.07    3.77   1
   4   5   5    8.37    0.67   1
   8   6   6   34.64    2.01   1
   9   6   6  564.35    8.49   1
   5   2   6  104.30    2.62   1
   5   1   6   72.58    2.27   1
   6   5   6    3.86    0.51   1
   5   3   6   37.87    1.68   1
  13   5   5   40.72    3.29   1
   7   6   6  358.33    5.79   1
  11   5   6  106.96    3.11   1
  10   6   6   32.87    1.88   1
  12   2   6    3.64    0.61   1
   2   1   4    0.66    0.23   1
   2   2   4   22.21    1.02   1
  12   3   6   12.13    0.92   1
  12   7   5    1.46    0.56   1
   5   4   6   22.28    1.53   1
   3   1   5    2.22    0.33   1
   3   2   5  124.73    2.60   1
  14   6   4   21.04    1.10   1
   2   3   4   54.62    1.61   1
  12   4   6    7.43    0.72   1
   2   0   4   42.08    1.39   1
   9   7   6   35.15    2.22   1
   3   3   5   17.64    0.81   1
   6   6   6    0.99    0.43   1
  11   6   6    4.85    0.62   1
   3   0   5   44.71    1.69   1
   8   2   7   30.97    1.67   1
  13   6   5  101.68    3.50   1
   9   2   7    6.04    0.69   1
   8   3   7    0.76    0.48   1
  10   7   6    4.70    0.63   1
   9   3   7  109.17    3.15   1
   5   5   6  840.43   10.43   1
  12   5   6   51.22    2.04   1
   7   2   7    2.30    0.50   1
   2   4   4  182.48    2.94   1
   3   4   5  136.27    2.79   1
  14   3   5    9.21    0.76   1
  10   2   7   15.49    1.01   1
   9   4   7   30.33    1.82   1
   8   4   7   14.34    0.93   1
   7   3   7   35.14    1.80   1
  10   3   7    5.98    0.64   1
   2  -1   4    0.55    0.23   1
   4   2   6   52.48    1.87   1
  14   4   5   60.91    2.54   1
   4   1   6    6.44    0.54   1
  10   4   7    0.60    0.50   1
   1   2   3  139.56    2.22   1
   7   4   7   58.45    2.34   1
   4   3   6   19.32    1.26   1
  11   7   6   23.91    1.83   1
   1   1   3    6.30    0.39   1
   9   5   7    2.13    0.49   1
   8   5   7    5.91    0.62   1
  12   6   6    1.22    0.58   1
   5   6   6    4.14    0.53   1
   6   2   7    4.13    0.53   1
  13   3   6    3.33    0.59   1
   3   5   5   22.58    1.39   1
  13   7   5    2.90    0.58   1
   6   1   7   16.64    0.98   1
   1   3   3    8.43    0.47   1
   6   3   7   17.67    0.99   1
  11   3   7    1.25    0.43   1
   4   4   6   23.52    1.38   1
  10   5   7    2.68    0.57   1
   7   5   7   77.99    2.67   1
  13   4   6    3.49    0.60   1
   1   0   3  309.78    3.86   1
  11   4   7    8.78    0.74   1
   6   4   7   24.60    1.12   1
   9   6   7  231.44    4.93   1
   8   6   7    0.13    0.49   1
  13   5   6    0.21    0.40   1
   4   5   6   42.77    1.97   1
   1   4   3   33.94    1.12   1
  10   6   7   18.83    1.11   1
  11   5   7   30.91    1.76   1
   7   6   7    4.31    0.58   1
   6   5   7    5.50    0.55   1
  12   7   6    2.99    0.59   1
   5   2   7   94.08    2.66   1
   5   3   7  122.91    3.01   1
   5   1   7    7.25    0.71   1
  12   3   7    4.84    0.67   1
   9   7   7   64.30    3.78   1
   8   7   7    2.33    0.59   1
   1  -1   3    5.52    0.36   1
   5   4   7    1.42    0.39   1
  13   6   6    0.10    0.47   1
  12   4   7    7.62    0.73   1
  11   6   7    2.01    0.56   1
   6   6   7   20.46    1.55   1
   2   2   5  422.93    5.42   1
  10   7   7    5.34    0.68   1
   3   2   6    4.05    0.41   1
   2   1   5   49.64    1.57   1
   2   3   5    6.44    0.52   1
   3   1   6    3.88    0.39   1
   3   3   6   91.60    2.33   1
  12   5   7    1.09    0.51   1
   8   2   8   16.84    1.04   1
   9   2   8   84.09    2.70   1
   9   3   8   17.08    1.07   1
   8   3   8    0.46    0.48   1
   5   5   7    9.70    0.78   1
   9   4   8   88.00    3.03   1
   2   0   5  126.45    2.47   1
   8   4   8   21.62    1.16   1
   3   0   6 1304.46   14.53   1
   3   4   6  220.82    3.92   1
   2   4   5  178.02    3.09   1
  10   3   8   41.67    2.34   1
   7   2   8   20.87    1.11   1
   7   3   8   21.79    1.14   1
  11   7   7   24.51    1.22   1
  10   4   8    1.46    0.52   1
  13   7   6    4.44    0.67   1
   7   4   8   44.70    2.22   1
   9   5   8    0.84    0.51   1
  12   6   7   55.59    2.83   1
   8   5   8  111.90    3.22   1
   4   2   7   15.95    0.91   1
   4   3   7   11.80    0.80   1
   5   6   7   44.60    2.03   1
   4   1   7    1.74    0.39   1
   3   5   6   76.59    2.30   1
  10   5   8    9.33    0.79   1
   1   2   4   56.44    1.46   1
  13   3   7   42.38    2.86   1
   2   5   5  709.39    8.60   1
   6   2   8  115.26    3.08   1
   7   5   8    3.47    0.55   1
   4   4   7  115.33    3.00   1
   6   3   8   73.31    2.54   1
   1   3   4   12.80    0.64   1
  11   3   8   25.55    1.27   1
   1   1   4   83.03    1.72   1
  13   4   7   -0.21    0.57   1
   9   6   8    1.45    0.54   1
   6   4   8   41.03    2.02   1
   8   6   8   87.22    3.02   1
  11   4   8    1.12    0.54   1
   4   5   7  138.76    3.21   1
  10   6   8   37.68    2.93   1
   1   4   4  245.04    3.70   1
   7   6   8    0.41    0.49   1
   1   0   4   93.96    1.94   1
  12   7   7    4.48    0.64   1
  11   5   8    9.20    0.78   1
   6   5   8   12.92    0.93   1
   9   7   8   36.05    1.94   1
   5   2   8   88.97    2.64   1
   5   3   8  135.82    3.33   1
   8   7   8    1.62    0.54   1
   5   1   8    1.24    0.45   1
   4   6   7  190.01    3.63   1
   5   4   8   64.92    2.29   1
  11   6   8   24.73    1.23   1
   6   6   8   31.38    2.03   1
  12   3   8    2.92    0.57   1
  10   7   8   53.96    3.47   1
   7   7   8   19.84    1.11   1
  12   4   8    0.15    0.53   1
   2   2   6  114.59    2.51   1
   2   3   6    5.52    0.53   1
   3   2   7   37.09    1.69   1
   1  -1   4   79.63    1.77   1
   3   3   7  313.39    4.95   1
   2   1   6   11.88    0.72   1
   5   5   8   78.59    2.57   1
   3   1   7   30.98    1.56   1
  12   5   8  141.02    3.85   1
  12   8   7    0.65    0.55   1
   9   3   9   -0.10    0.44   1
   8   3   9   25.64    1.25   1
   2   4   6   40.67    1.70   1
   3   4   7   49.50    1.92   1
   0   2   2  256.53    3.24   1
   9   4   9   48.68    2.22   1
   8   4   9   81.59    3.00   1
   2   0   6  333.31    4.95   1
   0   3   2    1.10    0.26   1
   7   3   9    2.98    0.57   1
  11   7   8   33.21    2.94   1
   7   2   9   45.43    2.20   1
   0   1   2    0.75    0.14   1
  10   3   9    5.41    0.65   1
   5   6   8   34.65    1.97   1
   7   4   9   14.45    0.99   1
   9   5   9  103.02    3.02   1
   8   5   9    1.90    0.54   1
   3   5   7  523.55    7.10   1
   2   5   6    1.17    0.37   1
  12   6   8    0.72    0.39   1
  10   4   9   55.33    3.51   1
   4   2   8    1.16    0.52   1
   4   3   8    1.03    0.39   1
   1   2   5  139.58    2.59   1
   1   3   5  111.75    2.42   1
   4   1   8    1.09    0.45   1
   4   4   8   65.84    2.35   1
   1   1   5   28.04    1.19   1
   7   5   9  110.88    3.08   1
  10   5   9    7.02    0.76   1
   6   3   9    5.56    0.64   1
   6   2   9   25.60    1.20   1
   1   4   5    3.94    0.39   1
   9   6   9    4.47    0.65   1
   8   6   9   62.56    2.36   1
   6   4   9    0.67    0.46   1
   4   5   8  150.15    3.42   1
  11   3   9    3.47    0.63   1
   1   0   5    1.15    0.36   1
  11   4   9    4.40    0.64   1
   7   6   9  175.62    3.70   1
  11   8   8   -0.35    0.48   1
   6   5   9  189.44    4.05   1
  10   6   9  146.03    4.26   1
   0   0   2    4.12    0.25   1
   0   2   3    0.73    0.19   1
  11   5   9   35.78    1.94   1
   0   3   3    3.14    0.33   1
   8   7   9    4.29    0.55   1
   4   6   8  247.42    4.28   1
   9   7   9   29.65    2.12   1
   5   3   9    5.34    0.59   1
   5   2   9   48.78    2.13   1
   6   6   9   96.25    2.92   1
   5   4   9   38.43    1.89   1
   7   7   9   42.09    2.38   1
   0   1   3  354.53    4.33   1
   2   2   7  119.48    2.72   1
   2   3   7  138.68    3.08   1
  11   6   9    0.59    0.51   1
  10   7   9    0.18    0.54   1
   3   3   8    1.18    0.38   1
   3   2   8  731.09    9.46   1
   2   1   7    5.45    0.49   1
   2   4   7   86.64    2.49   1
   5   5   9   36.64    2.05   1
   3   4   8    0.40    0.36   1
   3   1   8    1.27    0.40   1
   6   7   9    9.69    0.80   1
   2   0   7   85.58    2.34   1
   1   2   6  414.06    5.45   1
   8   3  10    1.61    0.46   1
   2   5   7   16.29    0.89   1
   1   3   6  134.91    2.80   1
   9   8   9   10.39    0.96   1
   3   5   8    1.16    0.44   1
   8   4  10    2.07    0.56   1
   5   6   9  102.75    2.96   1
   9   3  10   83.45    3.57   1
   0   0   3    0.73    0.17   1
   1   1   6   71.34    1.95   1
   9   4  10    2.76    0.60   1
   7   3  10   32.24    1.43   1
   1   4   6   50.81    1.87   1
   4   3   9   68.04    2.51   1
  11   7   9    0.04    0.56   1
   7   4  10    1.39    0.55   1
   4   2   9   33.37    1.62   1
   8   5  10    0.87    0.60   1
   0   3   4   -0.20    0.31   1
   0   2   4    1.79    0.26   1
   4   4   9    3.26    0.52   1
   9   5  10   57.23    3.62   1
  10   8   9    1.91    0.57   1
   3   6   8    8.37    0.82   1
   7   5  10  148.81    3.75   1
  10   3  10   -0.68    0.71   1
   1   5   6   78.78    2.28   1
   1   0   6    3.97    0.39   1
  10   4  10    2.23    0.61   1
   0   1   4    0.20    0.20   1
   5   7   9    1.82    0.58   1
   0   4   4  897.27   10.11   1
   6   3  10   14.03    1.01   1
   4   5   9    6.12    0.62   1
   6   2  10   10.93    0.81   1
   8   6  10    5.89    0.70   1
   6   4  10    2.15    0.52   1
  10   5  10    3.29    0.57   1
   9   6  10   33.95    2.15   1
   7   6  10   26.38    1.30   1
   0  -1   2    0.63    0.15   1
   6   5  10   23.31    1.16   1
   4   6   9  125.75    3.21   1
   0   0   4   46.27    1.31   1
   2   3   8   10.52    0.80   1
  10   6  10    2.64    0.58   1
   2   2   8    4.98    0.52   1
   8   7  10    1.25    0.55   1
   0  -1   3  357.64    4.30   1
   5   3  10  259.08    4.54   1
   6   6  10   61.72    2.49   1
   9   7  10  130.55    4.04   1
   5   2  10    1.81    0.65   1
   7   7  10   83.15    3.06   1
   5   4  10   23.09    1.20   1
   2   4   8   55.57    2.02   1
   2   1   8    3.62    0.48   1
   3   2   9   85.12    2.67   1
   3   3   9  111.16    3.08   1
   0   3   5  714.16    8.56   1
   0   0   0    0.00    0.00   0
;
_shelx_hkl_checksum              53561