_cell_length_a     8.9908
_cell_length_b    11.6594
_cell_length_c     7.8253
_cell_angle_alpha 90.0
_cell_angle_beta 90.0
_cell_angle_gamma 90.0
_space_group_IT_number                 1
 loop_
 _space_group_symop_operation_xyz 
 'x, y, z' 
 loop_ 
 _atom_site_label 
 _atom_site_occupancy 
 _atom_site_fract_x 
 _atom_site_fract_y
 _atom_site_fract_z
 _atom_site_adp_type
 _atom_site_U_iso_or_equiv
 _atom_site_type_symbol
 Mn1    1.0    0.271412    0.500365    0.328316 Biso 1.000000  Mn    
 Mn2    1.0    0.290988    0.000365    0.327684 Biso 1.000000  Mn    
 Mn3    1.0    0.771412    0.500365    0.827684 Biso 1.000000  Mn    
 Mn4    1.0    0.790988    0.000365    0.828316 Biso 1.000000  Mn    
 O1     1.0    0.487600    0.425969    0.403834 Biso 1.000000  O     
 O2     1.0    0.074800    0.925969    0.252166 Biso 1.000000  O     
 O3     1.0    0.987600    0.425969    0.752166 Biso 1.000000  O     
 O4     1.0    0.574800    0.925969    0.903834 Biso 1.000000  O     
 O5     1.0    0.676618    0.428632    0.590846 Biso 1.000000  O     
 O6     1.0    0.885782    0.928632    0.065154 Biso 1.000000  O     
 O7     1.0    0.176618    0.428632    0.565154 Biso 1.000000  O     
 O8     1.0    0.385782    0.928632    0.090846 Biso 1.000000  O     
 O9     1.0    0.367025    0.572463    0.092124 Biso 1.000000  O     
 O10    1.0    0.195375    0.072463    0.563876 Biso 1.000000  O     
 O11    1.0    0.867025    0.572463    0.063876 Biso 1.000000  O     
 O12    1.0    0.695375    0.072463    0.592124 Biso 1.000000  O     
 O13    1.0    0.555703    0.574997    0.904580 Biso 1.000000  O     
 O14    1.0    0.006697    0.074997    0.751420 Biso 1.000000  O     
 O15    1.0    0.055703    0.574997    0.251420 Biso 1.000000  O     
 O16    1.0    0.506697    0.074997    0.404580 Biso 1.000000  O     
 O17    1.0    0.234743    0.342336    0.177820 Biso 1.000000  O     
 O18    1.0    0.327657    0.842336    0.478180 Biso 1.000000  O     
 O19    1.0    0.734743    0.342336    0.978180 Biso 1.000000  O     
 O20    1.0    0.827657    0.842336    0.677820 Biso 1.000000  O     
 O21    1.0    0.249029    0.157952    0.179428 Biso 1.000000  O     
 O22    1.0    0.313371    0.657952    0.476572 Biso 1.000000  O     
 O23    1.0    0.749029    0.157952    0.976572 Biso 1.000000  O     
 O24    1.0    0.813371    0.657952    0.679429 Biso 1.000000  O     
 C1     1.0    0.548819    0.458635    0.540334 Biso 1.000000  C     
 C2     1.0    0.013581    0.958635    0.115666 Biso 1.000000  C     
 C3     1.0    0.048819    0.458635    0.615666 Biso 1.000000  C     
 C4     1.0    0.513581    0.958635    0.040334 Biso 1.000000  C     
 C5     1.0    0.491635    0.538609    0.037586 Biso 1.000000  C     
 C6     1.0    0.070765    0.038609    0.618414 Biso 1.000000  C     
 C7     1.0    0.991635    0.538609    0.118414 Biso 1.000000  C     
 C8     1.0    0.570765    0.038609    0.537586 Biso 1.000000  C     
 C9     1.0    0.235303    0.250052    0.254554 Biso 1.000000  C     
 C10    1.0    0.327097    0.750052    0.401446 Biso 1.000000  C     
 C11    1.0    0.735303    0.250052    0.901446 Biso 1.000000  C     
 C12    1.0    0.827097    0.750052    0.754554 Biso 1.000000  C     
 H1     1.0    0.488279    0.517115    0.620444 Biso 1.000000  H     
 H2     1.0    0.074121    1.017115    0.035556 Biso 1.000000  H     
 H3     1.0    0.988279    0.517115    0.535556 Biso 1.000000  H     
 H4     1.0    0.574121    1.017115    0.120444 Biso 1.000000  H     
 H5     1.0    0.547358    0.473299    0.110218 Biso 1.000000  H     
 H6     1.0    0.015042    0.973299    0.545782 Biso 1.000000  H     
 H7     1.0    0.047358    0.473299    0.045782 Biso 1.000000  H     
 H8     1.0    0.515042    0.973299    0.610218 Biso 1.000000  H     
 H9     1.0    0.222453    0.250125    0.395093 Biso 1.000000  H     
 H10    1.0    0.339946    0.750125    0.260907 Biso 1.000000  H     
 H11    1.0    0.722453    0.250125    0.760907 Biso 1.000000  H     
 H12    1.0    0.839947    0.750125    0.895093 Biso 1.000000  H     
 H13    1.0    0.702336    0.199313    0.195268 Biso 1.000000  H     
 H14    1.0    0.860064    0.699313    0.460732 Biso 1.000000  H     
 H15    1.0    0.202346    0.199557    0.960946 Biso 1.000000  H     
 H16    1.0    0.360054    0.699557    0.695054 Biso 1.000000  H     
 H17    1.0    0.698678    0.341401    0.254661 Biso 1.000000  H     
 H18    1.0    0.863722    0.841401    0.401339 Biso 1.000000  H     
 H19    1.0    0.198689    0.341538    0.900989 Biso 1.000000  H     
 H20    1.0    0.363711    0.841538    0.755011 Biso 1.000000  H     
 H21    1.0    0.635769    0.239658    0.392376 Biso 1.000000  H     
 H22    1.0    0.926631    0.739658    0.263624 Biso 1.000000  H     
 H23    1.0    0.135762    0.239550    0.763687 Biso 1.000000  H     
 H24    1.0    0.426638    0.739550    0.892313 Biso 1.000000  H     
 H25    1.0    0.878635    0.156571    0.372673 Biso 1.000000  H     
 H26    1.0    0.683765    0.656571    0.283327 Biso 1.000000  H     
 H27    1.0    0.378627    0.156492    0.783691 Biso 1.000000  H     
 H28    1.0    0.183773    0.656492    0.872309 Biso 1.000000  H     
 H29    1.0    0.860867    0.276167    0.484368 Biso 1.000000  H     
 H30    1.0    0.701533    0.776167    0.171632 Biso 1.000000  H     
 H31    1.0    0.360854    0.275887    0.671523 Biso 1.000000  H     
 H32    1.0    0.201546    0.775887    0.984477 Biso 1.000000  H     
 N1     1.0    0.715254    0.257194    0.297455 Biso 1.000000  N     
 N2     1.0    0.847146    0.757194    0.358545 Biso 1.000000  N     
 N3     1.0    0.215257    0.257253    0.858527 Biso 1.000000  N     
 N4     1.0    0.347143    0.757253    0.797473 Biso 1.000000  N     
 N5     1.0    0.865623    0.243984    0.361896 Biso 1.000000  N     
 N6     1.0    0.696777    0.743984    0.294104 Biso 1.000000  N     
 N7     1.0    0.365620    0.243924    0.794121 Biso 1.000000  N     
 N8     1.0    0.196780    0.743924    0.861879 Biso 1.000000  N     
