_cell_length_a     8.9908
_cell_length_b    11.6594
_cell_length_c     7.8253
_cell_angle_alpha 90.0
_cell_angle_beta 90.0
_cell_angle_gamma 90.0
_space_group_IT_number                 1
 loop_
 _space_group_symop_operation_xyz 
 'x, y, z' 
 loop_ 
 _atom_site_label 
 _atom_site_occupancy 
 _atom_site_fract_x 
 _atom_site_fract_y
 _atom_site_fract_z
 _atom_site_adp_type
 _atom_site_U_iso_or_equiv
 _atom_site_type_symbol
 Mn1    1.0    0.282176    0.500019    0.327367 Biso 1.000000  Mn    
 Mn2    1.0    0.243024    0.000019    0.328633 Biso 1.000000  Mn    
 Mn3    1.0    0.782176    0.500019    0.828633 Biso 1.000000  Mn    
 Mn4    1.0    0.743024    0.000019    0.827367 Biso 1.000000  Mn    
 O1     1.0    0.497646    0.425269    0.404953 Biso 1.000000  O     
 O2     1.0    0.027554    0.925269    0.251047 Biso 1.000000  O     
 O3     1.0    0.997646    0.425269    0.751047 Biso 1.000000  O     
 O4     1.0    0.527554    0.925269    0.904953 Biso 1.000000  O     
 O5     1.0    0.686153    0.427740    0.592762 Biso 1.000000  O     
 O6     1.0    0.839047    0.927740    0.063238 Biso 1.000000  O     
 O7     1.0    0.186153    0.427740    0.563238 Biso 1.000000  O     
 O8     1.0    0.339047    0.927740    0.092762 Biso 1.000000  O     
 O9     1.0    0.376560    0.571571    0.090208 Biso 1.000000  O     
 O10    1.0    0.148640    0.071571    0.565792 Biso 1.000000  O     
 O11    1.0    0.876560    0.571571    0.065792 Biso 1.000000  O     
 O12    1.0    0.648640    0.071571    0.590208 Biso 1.000000  O     
 O13    1.0    0.565749    0.574297    0.903461 Biso 1.000000  O     
 O14    1.0   -0.040549    0.074297    0.752539 Biso 1.000000  O     
 O15    1.0    0.065749    0.574297    0.252539 Biso 1.000000  O     
 O16    1.0    0.459451    0.074297    0.403461 Biso 1.000000  O     
 O17    1.0    0.237572    0.342653    0.180232 Biso 1.000000  O     
 O18    1.0    0.287628    0.842653    0.475768 Biso 1.000000  O     
 O19    1.0    0.737572    0.342653    0.975767 Biso 1.000000  O     
 O20    1.0    0.787628    0.842653    0.680232 Biso 1.000000  O     
 O21    1.0    0.209000    0.158269    0.177016 Biso 1.000000  O     
 O22    1.0    0.316200    0.658269    0.478984 Biso 1.000000  O     
 O23    1.0    0.709000    0.158269    0.978984 Biso 1.000000  O     
 O24    1.0    0.816200    0.658269    0.677016 Biso 1.000000  O     
 C1     1.0    0.563138    0.463519    0.536213 Biso 1.000000  C     
 C2     1.0   -0.037938    0.963519    0.119787 Biso 1.000000  C     
 C3     1.0    0.063138    0.463519    0.619787 Biso 1.000000  C     
 C4     1.0    0.462062    0.963519    0.036213 Biso 1.000000  C     
 C5     1.0    0.505954    0.543493    0.041707 Biso 1.000000  C     
 C6     1.0    0.019246    0.043493    0.614293 Biso 1.000000  C     
 C7     1.0    1.005954    0.543493    0.114293 Biso 1.000000  C     
 C8     1.0    0.519246    0.043493    0.541707 Biso 1.000000  C     
 C9     1.0    0.216703    0.250645    0.254554 Biso 1.000000  C     
 C10    1.0    0.308497    0.750645    0.401446 Biso 1.000000  C     
 C11    1.0    0.716703    0.250645    0.901446 Biso 1.000000  C     
 C12    1.0    0.808497    0.750645    0.754554 Biso 1.000000  C     
 H1     1.0    0.509823    0.532244    0.605104 Biso 1.000000  H     
 H2     1.0    0.015377    1.032244    0.050896 Biso 1.000000  H     
 H3     1.0    1.009823    0.532244    0.550896 Biso 1.000000  H     
 H4     1.0    0.515377    1.032244    0.105104 Biso 1.000000  H     
 H5     1.0    0.568902    0.488428    0.125558 Biso 1.000000  H     
 H6     1.0   -0.043702    0.988428    0.530442 Biso 1.000000  H     
 H7     1.0    0.068902    0.488428    0.030442 Biso 1.000000  H     
 H8     1.0    0.456298    0.988428    0.625558 Biso 1.000000  H     
 H9     1.0    0.203854    0.250500    0.395093 Biso 1.000000  H     
 H10    1.0    0.321347    0.750500    0.260907 Biso 1.000000  H     
 H11    1.0    0.703853    0.250500    0.760907 Biso 1.000000  H     
 H12    1.0    0.821347    0.750500    0.895093 Biso 1.000000  H     
 H13    1.0    0.684305    0.147986    0.296329 Biso 1.000000  H     
 H14    1.0    0.840895    0.647986    0.359671 Biso 1.000000  H     
 H15    1.0    0.184300    0.148097    0.860396 Biso 1.000000  H     
 H16    1.0    0.340900    0.648097    0.795604 Biso 1.000000  H     
 H17    1.0    0.679184    0.273047    0.179675 Biso 1.000000  H     
 H18    1.0    0.846016    0.773047    0.476325 Biso 1.000000  H     
 H19    1.0    0.179210    0.273524    0.976180 Biso 1.000000  H     
 H20    1.0    0.345990    0.773524    0.679820 Biso 1.000000  H     
 H21    1.0    0.617263    0.272720    0.384878 Biso 1.000000  H     
 H22    1.0    0.907937    0.772720    0.271122 Biso 1.000000  H     
 H23    1.0    0.117256    0.272557    0.770993 Biso 1.000000  H     
 H24    1.0    0.407944    0.772557    0.885007 Biso 1.000000  H     
 H25    1.0    0.860972    0.208085    0.461673 Biso 1.000000  H     
 H26    1.0    0.664228    0.708085    0.194327 Biso 1.000000  H     
 H27    1.0    0.360947    0.207666    0.694599 Biso 1.000000  H     
 H28    1.0    0.164253    0.707666    0.961401 Biso 1.000000  H     
 H29    1.0    0.841951    0.343927    0.405088 Biso 1.000000  H     
 H30    1.0    0.683249    0.843927    0.250912 Biso 1.000000  H     
 H31    1.0    0.341950    0.343685    0.750241 Biso 1.000000  H     
 H32    1.0    0.183250    0.843685    0.905759 Biso 1.000000  H     
 N1     1.0    0.696600    0.237722    0.301187 Biso 1.000000  N     
 N2     1.0    0.828600    0.737722    0.354813 Biso 1.000000  N     
 N3     1.0    0.196603    0.237817    0.854911 Biso 1.000000  N     
 N4     1.0    0.328597    0.737817    0.801089 Biso 1.000000  N     
 N5     1.0    0.847077    0.261481    0.358145 Biso 1.000000  N     
 N6     1.0    0.678123    0.761481    0.297855 Biso 1.000000  N     
 N7     1.0    0.347073    0.261387    0.797757 Biso 1.000000  N     
 N8     1.0    0.178127    0.761387    0.858243 Biso 1.000000  N     
