_cell_length_a     8.9908
_cell_length_b    11.6594
_cell_length_c     7.8253
_cell_angle_alpha 90.0
_cell_angle_beta 90.0
_cell_angle_gamma 90.0
_space_group_IT_number                 1
 loop_
 _space_group_symop_operation_xyz 
 'x, y, z' 
 loop_ 
 _atom_site_label 
 _atom_site_occupancy 
 _atom_site_fract_x 
 _atom_site_fract_y
 _atom_site_fract_z
 _atom_site_adp_type
 _atom_site_U_iso_or_equiv
 _atom_site_type_symbol
 Mn1    1.0    0.275000    0.500250    0.328000 Biso 1.000000  Mn    
 Mn2    1.0    0.275000    0.000250    0.328000 Biso 1.000000  Mn    
 Mn3    1.0    0.775000    0.500250    0.828000 Biso 1.000000  Mn    
 Mn4    1.0    0.775000    0.000250    0.828000 Biso 1.000000  Mn    
 O1     1.0    0.490949    0.425736    0.404207 Biso 1.000000  O     
 O2     1.0    0.059051    0.925736    0.251793 Biso 1.000000  O     
 O3     1.0    0.990949    0.425736    0.751793 Biso 1.000000  O     
 O4     1.0    0.559052    0.925736    0.904207 Biso 1.000000  O     
 O5     1.0    0.679797    0.428335    0.591485 Biso 1.000000  O     
 O6     1.0    0.870204    0.928335    0.064515 Biso 1.000000  O     
 O7     1.0    0.179796    0.428335    0.564515 Biso 1.000000  O     
 O8     1.0    0.370204    0.928335    0.091485 Biso 1.000000  O     
 O9     1.0    0.370204    0.572166    0.091485 Biso 1.000000  O     
 O10    1.0    0.179796    0.072165    0.564515 Biso 1.000000  O     
 O11    1.0    0.870204    0.572166    0.064515 Biso 1.000000  O     
 O12    1.0    0.679797    0.072165    0.591485 Biso 1.000000  O     
 O13    1.0    0.559052    0.574764    0.904207 Biso 1.000000  O     
 O14    1.0   -0.009051    0.074764    0.751793 Biso 1.000000  O     
 O15    1.0    0.059051    0.574764    0.251793 Biso 1.000000  O     
 O16    1.0    0.490949    0.074764    0.404207 Biso 1.000000  O     
 O17    1.0    0.235686    0.342442    0.178624 Biso 1.000000  O     
 O18    1.0    0.314314    0.842442    0.477376 Biso 1.000000  O     
 O19    1.0    0.735686    0.342442    0.977375 Biso 1.000000  O     
 O20    1.0    0.814314    0.842442    0.678624 Biso 1.000000  O     
 O21    1.0    0.235686    0.158058    0.178624 Biso 1.000000  O     
 O22    1.0    0.314314    0.658058    0.477376 Biso 1.000000  O     
 O23    1.0    0.735686    0.158058    0.977376 Biso 1.000000  O     
 O24    1.0    0.814314    0.658058    0.678624 Biso 1.000000  O     
 C1     1.0    0.553592    0.460263    0.538960 Biso 1.000000  C     
 C2     1.0   -0.003592    0.960263    0.117040 Biso 1.000000  C     
 C3     1.0    0.053592    0.460263    0.617040 Biso 1.000000  C     
 C4     1.0    0.496408    0.960263    0.038960 Biso 1.000000  C     
 C5     1.0    0.496408    0.540237    0.038960 Biso 1.000000  C     
 C6     1.0    0.053592    0.040237    0.617040 Biso 1.000000  C     
 C7     1.0    0.996408    0.540237    0.117040 Biso 1.000000  C     
 C8     1.0    0.553592    0.040237    0.538960 Biso 1.000000  C     
 C9     1.0    0.229103    0.250250    0.254554 Biso 1.000000  C     
 C10    1.0    0.320897    0.750250    0.401446 Biso 1.000000  C     
 C11    1.0    0.729103    0.250250    0.901446 Biso 1.000000  C     
 C12    1.0    0.820897    0.750250    0.754554 Biso 1.000000  C     
 H1     1.0    0.495461    0.522158    0.615331 Biso 1.000000  H     
 H2     1.0    0.054539    1.022158    0.040669 Biso 1.000000  H     
 H3     1.0    0.995461    0.522158    0.540669 Biso 1.000000  H     
 H4     1.0    0.554539    1.022158    0.115331 Biso 1.000000  H     
 H5     1.0    0.554539    0.478342    0.115331 Biso 1.000000  H     
 H6     1.0   -0.004540    0.978342    0.540669 Biso 1.000000  H     
 H7     1.0    0.054540    0.478342    0.040669 Biso 1.000000  H     
 H8     1.0    0.495460    0.978342    0.615331 Biso 1.000000  H     
 H9     1.0    0.216253    0.250250    0.395093 Biso 1.000000  H     
 H10    1.0    0.333747    0.750250    0.260907 Biso 1.000000  H     
 H11    1.0    0.716253    0.250250    0.760907 Biso 1.000000  H     
 H12    1.0    0.833747    0.750250    0.895093 Biso 1.000000  H     
 H13    1.0    0.696190    0.176092    0.221491 Biso 1.000000  H     
 H14    1.0    0.853810    0.676092    0.434509 Biso 1.000000  H     
 H15    1.0    0.196198    0.176339    0.934891 Biso 1.000000  H     
 H16    1.0    0.353802    0.676339    0.721109 Biso 1.000000  H     
 H17    1.0    0.692161    0.323659    0.220590 Biso 1.000000  H     
 H18    1.0    0.857839    0.823659    0.435410 Biso 1.000000  H     
 H19    1.0    0.192178    0.323906    0.935058 Biso 1.000000  H     
 H20    1.0    0.357822    0.823906    0.720942 Biso 1.000000  H     
 H21    1.0    0.629645    0.251051    0.394681 Biso 1.000000  H     
 H22    1.0    0.920355    0.751051    0.261319 Biso 1.000000  H     
 H23    1.0    0.129638    0.250911    0.761339 Biso 1.000000  H     
 H24    1.0    0.420362    0.750911    0.894661 Biso 1.000000  H     
 H25    1.0    0.872739    0.167885    0.409274 Biso 1.000000  H     
 H26    1.0    0.677261    0.667885    0.246726 Biso 1.000000  H     
 H27    1.0    0.372724    0.167703    0.747123 Biso 1.000000  H     
 H28    1.0    0.177276    0.667703    0.908877 Biso 1.000000  H     
 H29    1.0    0.854701    0.303420    0.467880 Biso 1.000000  H     
 H30    1.0    0.695299    0.803420    0.188120 Biso 1.000000  H     
 H31    1.0    0.354689    0.303107    0.687845 Biso 1.000000  H     
 H32    1.0    0.195311    0.803107    0.968155 Biso 1.000000  H     
 N1     1.0    0.709012    0.250573    0.296107 Biso 1.000000  N     
 N2     1.0    0.840988    0.750573    0.359893 Biso 1.000000  N     
 N3     1.0    0.209016    0.250651    0.859902 Biso 1.000000  N     
 N4     1.0    0.340984    0.750651    0.796098 Biso 1.000000  N     
 N5     1.0    0.859465    0.249948    0.363234 Biso 1.000000  N     
 N6     1.0    0.690535    0.749948    0.292766 Biso 1.000000  N     
 N7     1.0    0.359461    0.249870    0.792756 Biso 1.000000  N     
 N8     1.0    0.190539    0.749870    0.863244 Biso 1.000000  N     
