_cell_length_a     8.9908
_cell_length_b    11.6594
_cell_length_c     7.8253
_cell_angle_alpha 90.0
_cell_angle_beta 90.0
_cell_angle_gamma 90.0
_space_group_IT_number                 1
 loop_
 _space_group_symop_operation_xyz 
 'x, y, z' 
 loop_ 
 _atom_site_label 
 _atom_site_occupancy 
 _atom_site_fract_x 
 _atom_site_fract_y
 _atom_site_fract_z
 _atom_site_adp_type
 _atom_site_U_iso_or_equiv
 _atom_site_type_symbol
 Mn1    1.0    0.260647    0.500712    0.329266 Biso 1.000000  Mn    
 Mn2    1.0    0.338953    0.000712    0.326734 Biso 1.000000  Mn    
 Mn3    1.0    0.760647    0.500712    0.826734 Biso 1.000000  Mn    
 Mn4    1.0    0.838953    0.000712    0.829266 Biso 1.000000  Mn    
 O1     1.0    0.477554    0.426670    0.402716 Biso 1.000000  O     
 O2     1.0    0.122046    0.926670    0.253284 Biso 1.000000  O     
 O3     1.0    0.977554    0.426670    0.753284 Biso 1.000000  O     
 O4     1.0    0.622046    0.926670    0.902716 Biso 1.000000  O     
 O5     1.0    0.667084    0.429524    0.588931 Biso 1.000000  O     
 O6     1.0    0.932516    0.929524    0.067069 Biso 1.000000  O     
 O7     1.0    0.167084    0.429524    0.567069 Biso 1.000000  O     
 O8     1.0    0.432516    0.929524    0.088931 Biso 1.000000  O     
 O9     1.0    0.357491    0.573355    0.094039 Biso 1.000000  O     
 O10    1.0    0.242109    0.073355    0.561961 Biso 1.000000  O     
 O11    1.0    0.857491    0.573355    0.061961 Biso 1.000000  O     
 O12    1.0    0.742109    0.073355    0.594039 Biso 1.000000  O     
 O13    1.0    0.545657    0.575698    0.905698 Biso 1.000000  O     
 O14    1.0    0.053943    0.075698    0.750302 Biso 1.000000  O     
 O15    1.0    0.045657    0.575698    0.250302 Biso 1.000000  O     
 O16    1.0    0.553943    0.075698    0.405698 Biso 1.000000  O     
 O17    1.0    0.231913    0.342020    0.175407 Biso 1.000000  O     
 O18    1.0    0.367687    0.842020    0.480593 Biso 1.000000  O     
 O19    1.0    0.731913    0.342020    0.980593 Biso 1.000000  O     
 O20    1.0    0.867687    0.842020    0.675407 Biso 1.000000  O     
 O21    1.0    0.289059    0.157636    0.181841 Biso 1.000000  O     
 O22    1.0    0.310541    0.657636    0.474159 Biso 1.000000  O     
 O23    1.0    0.789059    0.157636    0.974159 Biso 1.000000  O     
 O24    1.0    0.810541    0.657636    0.681842 Biso 1.000000  O     
 C1     1.0    0.534499    0.453751    0.544454 Biso 1.000000  C     
 C2     1.0    0.065101    0.953751    0.111546 Biso 1.000000  C     
 C3     1.0    0.034499    0.453751    0.611546 Biso 1.000000  C     
 C4     1.0    0.565101    0.953751    0.044454 Biso 1.000000  C     
 C5     1.0    0.477315    0.533725    0.033466 Biso 1.000000  C     
 C6     1.0    0.122285    0.033725    0.622534 Biso 1.000000  C     
 C7     1.0    0.977315    0.533725    0.122534 Biso 1.000000  C     
 C8     1.0    0.622285    0.033725    0.533466 Biso 1.000000  C     
 C9     1.0    0.253903    0.249460    0.254554 Biso 1.000000  C     
 C10    1.0    0.345697    0.749460    0.401446 Biso 1.000000  C     
 C11    1.0    0.753903    0.249460    0.901446 Biso 1.000000  C     
 C12    1.0    0.845697    0.749460    0.754554 Biso 1.000000  C     
 H1     1.0    0.466735    0.501987    0.635785 Biso 1.000000  H     
 H2     1.0    0.132865    1.001987    0.020215 Biso 1.000000  H     
 H3     1.0    0.966735    0.501987    0.520215 Biso 1.000000  H     
 H4     1.0    0.632865    1.001987    0.135785 Biso 1.000000  H     
 H5     1.0    0.525814    0.458171    0.094877 Biso 1.000000  H     
 H6     1.0    0.073786    0.958171    0.561123 Biso 1.000000  H     
 H7     1.0    0.025814    0.458171    0.061123 Biso 1.000000  H     
 H8     1.0    0.573786    0.958171    0.594877 Biso 1.000000  H     
 H9     1.0    0.241053    0.249751    0.395093 Biso 1.000000  H     
 H10    1.0    0.358546    0.749751    0.260907 Biso 1.000000  H     
 H11    1.0    0.741053    0.249751    0.760907 Biso 1.000000  H     
 H12    1.0    0.858547    0.749751    0.895093 Biso 1.000000  H     
 H13    1.0    0.721352    0.284146    0.182583 Biso 1.000000  H     
 H14    1.0    0.878248    0.784146    0.473417 Biso 1.000000  H     
 H15    1.0    0.221356    0.284212    0.973387 Biso 1.000000  H     
 H16    1.0    0.378244    0.784212    0.682613 Biso 1.000000  H     
 H17    1.0    0.717824    0.350251    0.379171 Biso 1.000000  H     
 H18    1.0    0.881776    0.850251    0.276829 Biso 1.000000  H     
 H19    1.0    0.217823    0.350229    0.776733 Biso 1.000000  H     
 H20    1.0    0.381777    0.850229    0.879267 Biso 1.000000  H     
 H21    1.0    0.654086    0.213654    0.359529 Biso 1.000000  H     
 H22    1.0    0.945514    0.713654    0.296471 Biso 1.000000  H     
 H23    1.0    0.154085    0.213642    0.796513 Biso 1.000000  H     
 H24    1.0    0.445515    0.713642    0.859487 Biso 1.000000  H     
 H25    1.0    0.896812    0.166640    0.255145 Biso 1.000000  H     
 H26    1.0    0.702788    0.666640    0.400855 Biso 1.000000  H     
 H27    1.0    0.396813    0.166673    0.900937 Biso 1.000000  H     
 H28    1.0    0.202787    0.666673    0.755063 Biso 1.000000  H     
 H29    1.0    0.878901    0.191694    0.462094 Biso 1.000000  H     
 H30    1.0    0.720699    0.691694    0.193906 Biso 1.000000  H     
 H31    1.0    0.378897    0.191634    0.693964 Biso 1.000000  H     
 H32    1.0    0.220703    0.691634    0.962036 Biso 1.000000  H     
 N1     1.0    0.734004    0.272290    0.315159 Biso 1.000000  N     
 N2     1.0    0.865596    0.772290    0.340841 Biso 1.000000  N     
 N3     1.0    0.234004    0.272297    0.840822 Biso 1.000000  N     
 N4     1.0    0.365596    0.772297    0.815178 Biso 1.000000  N     
 N5     1.0    0.884073    0.230843    0.344236 Biso 1.000000  N     
 N6     1.0    0.715527    0.730843    0.311764 Biso 1.000000  N     
 N7     1.0    0.384073    0.230837    0.811783 Biso 1.000000  N     
 N8     1.0    0.215527    0.730837    0.844217 Biso 1.000000  N     
