_cell_length_a     8.9908
_cell_length_b    11.6594
_cell_length_c     7.8253
_cell_angle_alpha 90.0
_cell_angle_beta 90.0
_cell_angle_gamma 90.0
_space_group_IT_number                 1
 loop_
 _space_group_symop_operation_xyz 
 'x, y, z' 
 loop_ 
 _atom_site_label 
 _atom_site_occupancy 
 _atom_site_fract_x 
 _atom_site_fract_y
 _atom_site_fract_z
 _atom_site_adp_type
 _atom_site_U_iso_or_equiv
 _atom_site_type_symbol
 Mn1    1.0    0.289353    0.499788    0.326734 Biso 1.000000  Mn    
 Mn2    1.0    0.211047   -0.000212    0.329266 Biso 1.000000  Mn    
 Mn3    1.0    0.789353    0.499788    0.829266 Biso 1.000000  Mn    
 Mn4    1.0    0.711047   -0.000212    0.826734 Biso 1.000000  Mn    
 O1     1.0    0.504343    0.424802    0.405698 Biso 1.000000  O     
 O2     1.0   -0.003943    0.924802    0.250302 Biso 1.000000  O     
 O3     1.0    1.004343    0.424802    0.750302 Biso 1.000000  O     
 O4     1.0    0.496057    0.924802    0.905698 Biso 1.000000  O     
 O5     1.0    0.692509    0.427145    0.594039 Biso 1.000000  O     
 O6     1.0    0.807891    0.927145    0.061961 Biso 1.000000  O     
 O7     1.0    0.192509    0.427145    0.561961 Biso 1.000000  O     
 O8     1.0    0.307891    0.927145    0.094039 Biso 1.000000  O     
 O9     1.0    0.382916    0.570976    0.088931 Biso 1.000000  O     
 O10    1.0    0.117484    0.070976    0.567069 Biso 1.000000  O     
 O11    1.0    0.882916    0.570976    0.067069 Biso 1.000000  O     
 O12    1.0    0.617484    0.070976    0.588931 Biso 1.000000  O     
 O13    1.0    0.572446    0.573830    0.902716 Biso 1.000000  O     
 O14    1.0   -0.072046    0.073830    0.753284 Biso 1.000000  O     
 O15    1.0    0.072446    0.573830    0.253284 Biso 1.000000  O     
 O16    1.0    0.427954    0.073830    0.402716 Biso 1.000000  O     
 O17    1.0    0.239459    0.342864    0.181841 Biso 1.000000  O     
 O18    1.0    0.260941    0.842864    0.474159 Biso 1.000000  O     
 O19    1.0    0.739459    0.342864    0.974158 Biso 1.000000  O     
 O20    1.0    0.760941    0.842864    0.681841 Biso 1.000000  O     
 O21    1.0    0.182313    0.158480    0.175407 Biso 1.000000  O     
 O22    1.0    0.318087    0.658480    0.480593 Biso 1.000000  O     
 O23    1.0    0.682313    0.158480    0.980593 Biso 1.000000  O     
 O24    1.0    0.818087    0.658480    0.675407 Biso 1.000000  O     
 C1     1.0    0.572685    0.466775    0.533466 Biso 1.000000  C     
 C2     1.0   -0.072285    0.966775    0.122534 Biso 1.000000  C     
 C3     1.0    0.072685    0.466775    0.622534 Biso 1.000000  C     
 C4     1.0    0.427715    0.966775    0.033466 Biso 1.000000  C     
 C5     1.0    0.515501    0.546749    0.044454 Biso 1.000000  C     
 C6     1.0   -0.015101    0.046749    0.611546 Biso 1.000000  C     
 C7     1.0    1.015501    0.546749    0.111546 Biso 1.000000  C     
 C8     1.0    0.484899    0.046749    0.544454 Biso 1.000000  C     
 C9     1.0    0.204303    0.251040    0.254554 Biso 1.000000  C     
 C10    1.0    0.296097    0.751040    0.401446 Biso 1.000000  C     
 C11    1.0    0.704303    0.251040    0.901446 Biso 1.000000  C     
 C12    1.0    0.796097    0.751040    0.754554 Biso 1.000000  C     
 H1     1.0    0.524186    0.542329    0.594877 Biso 1.000000  H     
 H2     1.0   -0.023786    1.042329    0.061123 Biso 1.000000  H     
 H3     1.0    1.024186    0.542329    0.561123 Biso 1.000000  H     
 H4     1.0    0.476214    1.042329    0.094877 Biso 1.000000  H     
 H5     1.0    0.583265    0.498513    0.135785 Biso 1.000000  H     
 H6     1.0   -0.082865    0.998513    0.520215 Biso 1.000000  H     
 H7     1.0    0.083265    0.498513    0.020215 Biso 1.000000  H     
 H8     1.0    0.417135    0.998513    0.635785 Biso 1.000000  H     
 H9     1.0    0.191454    0.250749    0.395093 Biso 1.000000  H     
 H10    1.0    0.308947    0.750749    0.260907 Biso 1.000000  H     
 H11    1.0    0.691453    0.250749    0.760907 Biso 1.000000  H     
 H12    1.0    0.808947    0.750749    0.895093 Biso 1.000000  H     
 H13    1.0    0.672864    0.150376    0.381501 Biso 1.000000  H     
 H14    1.0    0.827536    0.650376    0.274499 Biso 1.000000  H     
 H15    1.0    0.172838    0.150177    0.775405 Biso 1.000000  H     
 H16    1.0    0.327562    0.650177    0.880595 Biso 1.000000  H     
 H17    1.0    0.666616    0.215349    0.184166 Biso 1.000000  H     
 H18    1.0    0.833784    0.715349    0.471834 Biso 1.000000  H     
 H19    1.0    0.166640    0.215945    0.972157 Biso 1.000000  H     
 H20    1.0    0.333760    0.715945    0.683843 Biso 1.000000  H     
 H21    1.0    0.604634    0.287372    0.359046 Biso 1.000000  H     
 H22    1.0    0.895766    0.787372    0.296954 Biso 1.000000  H     
 H23    1.0    0.104634    0.287268    0.796651 Biso 1.000000  H     
 H24    1.0    0.395766    0.787268    0.859349 Biso 1.000000  H     
 H25    1.0    0.848914    0.260801    0.474098 Biso 1.000000  H     
 H26    1.0    0.651486    0.760801    0.181902 Biso 1.000000  H     
 H27    1.0    0.348887    0.260210    0.681775 Biso 1.000000  H     
 H28    1.0    0.151513    0.760210    0.974225 Biso 1.000000  H     
 H29    1.0    0.828648    0.356120    0.319396 Biso 1.000000  H     
 H30    1.0    0.671752    0.856120    0.336604 Biso 1.000000  H     
 H31    1.0    0.328667    0.356153    0.835626 Biso 1.000000  H     
 H32    1.0    0.171733    0.856153    0.820374 Biso 1.000000  H     
 N1     1.0    0.684321    0.228407    0.315099 Biso 1.000000  N     
 N2     1.0    0.816079    0.728407    0.340901 Biso 1.000000  N     
 N3     1.0    0.184321    0.228474    0.841105 Biso 1.000000  N     
 N4     1.0    0.316079    0.728474    0.814895 Biso 1.000000  N     
 N5     1.0    0.834555    0.269478    0.344239 Biso 1.000000  N     
 N6     1.0    0.665845    0.769478    0.311761 Biso 1.000000  N     
 N7     1.0    0.334555    0.269412    0.811557 Biso 1.000000  N     
 N8     1.0    0.165845    0.769412    0.844443 Biso 1.000000  N     
