_cell_length_a     8.9908
_cell_length_b    11.6594
_cell_length_c     7.8253
_cell_angle_alpha 90.0
_cell_angle_beta 90.0
_cell_angle_gamma 90.0
_space_group_IT_number                 1
 loop_
 _space_group_symop_operation_xyz 
 'x, y, z' 
 loop_ 
 _atom_site_label 
 _atom_site_occupancy 
 _atom_site_fract_x 
 _atom_site_fract_y
 _atom_site_fract_z
 _atom_site_adp_type
 _atom_site_U_iso_or_equiv
 _atom_site_type_symbol
 Mn1    1.0    0.267824    0.500481    0.328633 Biso 1.000000  Mn    
 Mn2    1.0    0.306976    0.000481    0.327367 Biso 1.000000  Mn    
 Mn3    1.0    0.767824    0.500481    0.827367 Biso 1.000000  Mn    
 Mn4    1.0    0.806976    0.000481    0.828633 Biso 1.000000  Mn    
 O1     1.0    0.484251    0.426203    0.403461 Biso 1.000000  O     
 O2     1.0    0.090549    0.926203    0.252539 Biso 1.000000  O     
 O3     1.0    0.984251    0.426203    0.752539 Biso 1.000000  O     
 O4     1.0    0.590549    0.926203    0.903461 Biso 1.000000  O     
 O5     1.0    0.673440    0.428929    0.590208 Biso 1.000000  O     
 O6     1.0    0.901360    0.928929    0.065792 Biso 1.000000  O     
 O7     1.0    0.173440    0.428929    0.565792 Biso 1.000000  O     
 O8     1.0    0.401360    0.928929    0.090208 Biso 1.000000  O     
 O9     1.0    0.363847    0.572760    0.092762 Biso 1.000000  O     
 O10    1.0    0.210953    0.072760    0.563238 Biso 1.000000  O     
 O11    1.0    0.863847    0.572760    0.063238 Biso 1.000000  O     
 O12    1.0    0.710953    0.072760    0.592762 Biso 1.000000  O     
 O13    1.0    0.552354    0.575231    0.904953 Biso 1.000000  O     
 O14    1.0    0.022446    0.075231    0.751047 Biso 1.000000  O     
 O15    1.0    0.052354    0.575231    0.251047 Biso 1.000000  O     
 O16    1.0    0.522446    0.075231    0.404953 Biso 1.000000  O     
 O17    1.0    0.233800    0.342231    0.177016 Biso 1.000000  O     
 O18    1.0    0.341000    0.842231    0.478984 Biso 1.000000  O     
 O19    1.0    0.733800    0.342231    0.978984 Biso 1.000000  O     
 O20    1.0    0.841000    0.842231    0.677016 Biso 1.000000  O     
 O21    1.0    0.262372    0.157847    0.180232 Biso 1.000000  O     
 O22    1.0    0.312428    0.657847    0.475768 Biso 1.000000  O     
 O23    1.0    0.762372    0.157847    0.975768 Biso 1.000000  O     
 O24    1.0    0.812428    0.657847    0.680233 Biso 1.000000  O     
 C1     1.0    0.544046    0.457007    0.541707 Biso 1.000000  C     
 C2     1.0    0.030754    0.957007    0.114293 Biso 1.000000  C     
 C3     1.0    0.044046    0.457007    0.614293 Biso 1.000000  C     
 C4     1.0    0.530754    0.957007    0.041707 Biso 1.000000  C     
 C5     1.0    0.486862    0.536981    0.036213 Biso 1.000000  C     
 C6     1.0    0.087938    0.036981    0.619787 Biso 1.000000  C     
 C7     1.0    0.986862    0.536981    0.119787 Biso 1.000000  C     
 C8     1.0    0.587938    0.036981    0.536213 Biso 1.000000  C     
 C9     1.0    0.241503    0.249855    0.254554 Biso 1.000000  C     
 C10    1.0    0.333297    0.749855    0.401446 Biso 1.000000  C     
 C11    1.0    0.741503    0.249855    0.901446 Biso 1.000000  C     
 C12    1.0    0.833297    0.749855    0.754554 Biso 1.000000  C     
 H1     1.0    0.481098    0.512072    0.625558 Biso 1.000000  H     
 H2     1.0    0.093702    1.012072    0.030442 Biso 1.000000  H     
 H3     1.0    0.981098    0.512072    0.530442 Biso 1.000000  H     
 H4     1.0    0.593702    1.012072    0.125558 Biso 1.000000  H     
 H5     1.0    0.540177    0.468256    0.105104 Biso 1.000000  H     
 H6     1.0    0.034623    0.968256    0.550896 Biso 1.000000  H     
 H7     1.0    0.040177    0.468256    0.050896 Biso 1.000000  H     
 H8     1.0    0.534623    0.968256    0.605104 Biso 1.000000  H     
 H9     1.0    0.228653    0.250000    0.395093 Biso 1.000000  H     
 H10    1.0    0.346146    0.750000    0.260907 Biso 1.000000  H     
 H11    1.0    0.728653    0.250000    0.760907 Biso 1.000000  H     
 H12    1.0    0.846147    0.750000    0.895093 Biso 1.000000  H     
 H13    1.0    0.708600    0.226455    0.179387 Biso 1.000000  H     
 H14    1.0    0.866200    0.726455    0.476613 Biso 1.000000  H     
 H15    1.0    0.208610    0.226659    0.976694 Biso 1.000000  H     
 H16    1.0    0.366190    0.726659    0.679306 Biso 1.000000  H     
 H17    1.0    0.705150    0.352181    0.294526 Biso 1.000000  H     
 H18    1.0    0.869650    0.852181    0.361474 Biso 1.000000  H     
 H19    1.0    0.205156    0.352230    0.861180 Biso 1.000000  H     
 H20    1.0    0.369644    0.852230    0.794820 Biso 1.000000  H     
 H21    1.0    0.641870    0.229091    0.385349 Biso 1.000000  H     
 H22    1.0    0.932930    0.729091    0.270651 Biso 1.000000  H     
 H23    1.0    0.141866    0.229019    0.770730 Biso 1.000000  H     
 H24    1.0    0.432934    0.729019    0.885270 Biso 1.000000  H     
 H25    1.0    0.884596    0.152464    0.332734 Biso 1.000000  H     
 H26    1.0    0.690204    0.652464    0.323266 Biso 1.000000  H     
 H27    1.0    0.384593    0.152458    0.823552 Biso 1.000000  H     
 H28    1.0    0.190207    0.652458    0.832448 Biso 1.000000  H     
 H29    1.0    0.866927    0.246958    0.488972 Biso 1.000000  H     
 H30    1.0    0.707873    0.746958    0.167028 Biso 1.000000  H     
 H31    1.0    0.366916    0.246743    0.667034 Biso 1.000000  H     
 H32    1.0    0.207884    0.746743    0.988966 Biso 1.000000  H     
 N1     1.0    0.721507    0.263302    0.301312 Biso 1.000000  N     
 N2     1.0    0.853293    0.763302    0.354688 Biso 1.000000  N     
 N3     1.0    0.221509    0.263342    0.854658 Biso 1.000000  N     
 N4     1.0    0.353291    0.763342    0.801342 Biso 1.000000  N     
 N5     1.0    0.871770    0.238530    0.358053 Biso 1.000000  N     
 N6     1.0    0.703030    0.738530    0.297947 Biso 1.000000  N     
 N7     1.0    0.371768    0.238490    0.797977 Biso 1.000000  N     
 N8     1.0    0.203032    0.738490    0.858023 Biso 1.000000  N     
