_cell_length_a     8.9908
_cell_length_b    11.6594
_cell_length_c     7.8253
_cell_angle_alpha 90.0
_cell_angle_beta 90.0
_cell_angle_gamma 90.0
_space_group_IT_number                 1
 loop_
 _space_group_symop_operation_xyz 
 'x, y, z' 
 loop_ 
 _atom_site_label 
 _atom_site_occupancy 
 _atom_site_fract_x 
 _atom_site_fract_y
 _atom_site_fract_z
 _atom_site_adp_type
 _atom_site_U_iso_or_equiv
 _atom_site_type_symbol
 Mn1    1.0    0.278588    0.500135    0.327684 Biso 1.000000  Mn    
 Mn2    1.0    0.259012    0.000135    0.328316 Biso 1.000000  Mn    
 Mn3    1.0    0.778588    0.500135    0.828316 Biso 1.000000  Mn    
 Mn4    1.0    0.759012    0.000135    0.827684 Biso 1.000000  Mn    
 O1     1.0    0.494297    0.425503    0.404580 Biso 1.000000  O     
 O2     1.0    0.043303    0.925503    0.251420 Biso 1.000000  O     
 O3     1.0    0.994297    0.425503    0.751420 Biso 1.000000  O     
 O4     1.0    0.543303    0.925503    0.904580 Biso 1.000000  O     
 O5     1.0    0.682975    0.428037    0.592124 Biso 1.000000  O     
 O6     1.0    0.854625    0.928037    0.063876 Biso 1.000000  O     
 O7     1.0    0.182975    0.428037    0.563876 Biso 1.000000  O     
 O8     1.0    0.354625    0.928037    0.092124 Biso 1.000000  O     
 O9     1.0    0.373382    0.571868    0.090846 Biso 1.000000  O     
 O10    1.0    0.164218    0.071868    0.565154 Biso 1.000000  O     
 O11    1.0    0.873382    0.571868    0.065154 Biso 1.000000  O     
 O12    1.0    0.664218    0.071868    0.590846 Biso 1.000000  O     
 O13    1.0    0.562400    0.574531    0.903834 Biso 1.000000  O     
 O14    1.0   -0.024800    0.074531    0.752166 Biso 1.000000  O     
 O15    1.0    0.062400    0.574531    0.252166 Biso 1.000000  O     
 O16    1.0    0.475200    0.074531    0.403834 Biso 1.000000  O     
 O17    1.0    0.236629    0.342548    0.179428 Biso 1.000000  O     
 O18    1.0    0.300971    0.842548    0.476572 Biso 1.000000  O     
 O19    1.0    0.736629    0.342548    0.976571 Biso 1.000000  O     
 O20    1.0    0.800971    0.842548    0.679428 Biso 1.000000  O     
 O21    1.0    0.222343    0.158164    0.177820 Biso 1.000000  O     
 O22    1.0    0.315257    0.658164    0.478180 Biso 1.000000  O     
 O23    1.0    0.722343    0.158164    0.978180 Biso 1.000000  O     
 O24    1.0    0.815257    0.658164    0.677820 Biso 1.000000  O     
 C1     1.0    0.558365    0.461891    0.537586 Biso 1.000000  C     
 C2     1.0   -0.020765    0.961891    0.118414 Biso 1.000000  C     
 C3     1.0    0.058365    0.461891    0.618414 Biso 1.000000  C     
 C4     1.0    0.479235    0.961891    0.037586 Biso 1.000000  C     
 C5     1.0    0.501181    0.541865    0.040334 Biso 1.000000  C     
 C6     1.0    0.036419    0.041865    0.615666 Biso 1.000000  C     
 C7     1.0    1.001181    0.541865    0.115666 Biso 1.000000  C     
 C8     1.0    0.536419    0.041865    0.540334 Biso 1.000000  C     
 C9     1.0    0.222903    0.250448    0.254554 Biso 1.000000  C     
 C10    1.0    0.314697    0.750448    0.401446 Biso 1.000000  C     
 C11    1.0    0.722903    0.250448    0.901446 Biso 1.000000  C     
 C12    1.0    0.814697    0.750448    0.754554 Biso 1.000000  C     
 H1     1.0    0.502642    0.527201    0.610218 Biso 1.000000  H     
 H2     1.0    0.034958    1.027201    0.045782 Biso 1.000000  H     
 H3     1.0    1.002642    0.527201    0.545782 Biso 1.000000  H     
 H4     1.0    0.534958    1.027201    0.110218 Biso 1.000000  H     
 H5     1.0    0.561721    0.483385    0.120444 Biso 1.000000  H     
 H6     1.0   -0.024121    0.983385    0.535556 Biso 1.000000  H     
 H7     1.0    0.061721    0.483385    0.035556 Biso 1.000000  H     
 H8     1.0    0.475879    0.983385    0.620444 Biso 1.000000  H     
 H9     1.0    0.210054    0.250375    0.395093 Biso 1.000000  H     
 H10    1.0    0.327547    0.750375    0.260907 Biso 1.000000  H     
 H11    1.0    0.710053    0.250375    0.760907 Biso 1.000000  H     
 H12    1.0    0.827547    0.750375    0.895093 Biso 1.000000  H     
 H13    1.0    0.690181    0.158544    0.256056 Biso 1.000000  H     
 H14    1.0    0.847419    0.658544    0.399944 Biso 1.000000  H     
 H15    1.0    0.190183    0.158747    0.900504 Biso 1.000000  H     
 H16    1.0    0.347417    0.658747    0.755496 Biso 1.000000  H     
 H17    1.0    0.685646    0.300286    0.194936 Biso 1.000000  H     
 H18    1.0    0.851954    0.800286    0.461064 Biso 1.000000  H     
 H19    1.0    0.185668    0.300653    0.960779 Biso 1.000000  H     
 H20    1.0    0.351932    0.800653    0.695221 Biso 1.000000  H     
 H21    1.0    0.623481    0.262369    0.392110 Biso 1.000000  H     
 H22    1.0    0.914119    0.762369    0.263890 Biso 1.000000  H     
 H23    1.0    0.123474    0.262209    0.763844 Biso 1.000000  H     
 H24    1.0    0.414126    0.762209    0.892156 Biso 1.000000  H     
 H25    1.0    0.866867    0.185514    0.439722 Biso 1.000000  H     
 H26    1.0    0.670733    0.685514    0.216278 Biso 1.000000  H     
 H27    1.0    0.366847    0.185214    0.716648 Biso 1.000000  H     
 H28    1.0    0.170753    0.685214    0.939352 Biso 1.000000  H     
 H29    1.0    0.848401    0.326607    0.440765 Biso 1.000000  H     
 H30    1.0    0.689199    0.826607    0.215235 Biso 1.000000  H     
 H31    1.0    0.348392    0.326304    0.714766 Biso 1.000000  H     
 H32    1.0    0.189208    0.826304    0.941234 Biso 1.000000  H     
 N1     1.0    0.702791    0.243921    0.297380 Biso 1.000000  N     
 N2     1.0    0.834809    0.743921    0.358620 Biso 1.000000  N     
 N3     1.0    0.202795    0.244012    0.858669 Biso 1.000000  N     
 N4     1.0    0.334805    0.744012    0.797331 Biso 1.000000  N     
 N5     1.0    0.853285    0.255941    0.361954 Biso 1.000000  N     
 N6     1.0    0.684315    0.755941    0.294046 Biso 1.000000  N     
 N7     1.0    0.353281    0.255851    0.793997 Biso 1.000000  N     
 N8     1.0    0.184319    0.755851    0.862003 Biso 1.000000  N     
