_cell_length_a     8.9908
_cell_length_b    11.6594
_cell_length_c     7.8253
_cell_angle_alpha 90.0
_cell_angle_beta 90.0
_cell_angle_gamma 90.0
_space_group_IT_number                 1
 loop_
 _space_group_symop_operation_xyz 
 'x, y, z' 
 loop_ 
 _atom_site_label 
 _atom_site_occupancy 
 _atom_site_fract_x 
 _atom_site_fract_y
 _atom_site_fract_z
 _atom_site_adp_type
 _atom_site_U_iso_or_equiv
 _atom_site_type_symbol
 Mn1    1.0    0.257059    0.500827    0.329582 Biso 1.000000  Mn    
 Mn2    1.0    0.354941    0.000827    0.326418 Biso 1.000000  Mn    
 Mn3    1.0    0.757059    0.500827    0.826418 Biso 1.000000  Mn    
 Mn4    1.0    0.854941    0.000827    0.829582 Biso 1.000000  Mn    
 O1     1.0    0.474205    0.426903    0.402343 Biso 1.000000  O     
 O2     1.0    0.137795    0.926903    0.253657 Biso 1.000000  O     
 O3     1.0    0.974205    0.426903    0.753657 Biso 1.000000  O     
 O4     1.0    0.637795    0.926903    0.902343 Biso 1.000000  O     
 O5     1.0    0.663906    0.429821    0.588292 Biso 1.000000  O     
 O6     1.0    0.948094    0.929821    0.067708 Biso 1.000000  O     
 O7     1.0    0.163906    0.429821    0.567708 Biso 1.000000  O     
 O8     1.0    0.448094    0.929821    0.088292 Biso 1.000000  O     
 O9     1.0    0.354313    0.573652    0.094678 Biso 1.000000  O     
 O10    1.0    0.257687    0.073652    0.561322 Biso 1.000000  O     
 O11    1.0    0.854313    0.573652    0.061322 Biso 1.000000  O     
 O12    1.0    0.757687    0.073652    0.594678 Biso 1.000000  O     
 O13    1.0    0.542308    0.575931    0.906071 Biso 1.000000  O     
 O14    1.0    0.069692    0.075931    0.749929 Biso 1.000000  O     
 O15    1.0    0.042308    0.575931    0.249929 Biso 1.000000  O     
 O16    1.0    0.569692    0.075931    0.406071 Biso 1.000000  O     
 O17    1.0    0.230970    0.341914    0.174603 Biso 1.000000  O     
 O18    1.0    0.381030    0.841914    0.481397 Biso 1.000000  O     
 O19    1.0    0.730970    0.341914    0.981397 Biso 1.000000  O     
 O20    1.0    0.881030    0.841914    0.674603 Biso 1.000000  O     
 O21    1.0    0.302402    0.157530    0.182645 Biso 1.000000  O     
 O22    1.0    0.309598    0.657530    0.473355 Biso 1.000000  O     
 O23    1.0    0.802402    0.157530    0.973355 Biso 1.000000  O     
 O24    1.0    0.809598    0.657530    0.682646 Biso 1.000000  O     
 C1     1.0    0.529726    0.452123    0.545828 Biso 1.000000  C     
 C2     1.0    0.082274    0.952123    0.110172 Biso 1.000000  C     
 C3     1.0    0.029726    0.452123    0.610172 Biso 1.000000  C     
 C4     1.0    0.582274    0.952123    0.045828 Biso 1.000000  C     
 C5     1.0    0.472542    0.532097    0.032092 Biso 1.000000  C     
 C6     1.0    0.139458    0.032097    0.623908 Biso 1.000000  C     
 C7     1.0    0.972542    0.532097    0.123908 Biso 1.000000  C     
 C8     1.0    0.639458    0.032097    0.532092 Biso 1.000000  C     
 C9     1.0    0.260103    0.249262    0.254554 Biso 1.000000  C     
 C10    1.0    0.351897    0.749262    0.401446 Biso 1.000000  C     
 C11    1.0    0.760103    0.249262    0.901446 Biso 1.000000  C     
 C12    1.0    0.851897    0.749262    0.754554 Biso 1.000000  C     
 H1     1.0    0.459554    0.496944    0.640898 Biso 1.000000  H     
 H2     1.0    0.152446    0.996944    0.015102 Biso 1.000000  H     
 H3     1.0    0.959554    0.496944    0.515102 Biso 1.000000  H     
 H4     1.0    0.652446    0.996944    0.140898 Biso 1.000000  H     
 H5     1.0    0.518633    0.453128    0.089764 Biso 1.000000  H     
 H6     1.0    0.093367    0.953128    0.566236 Biso 1.000000  H     
 H7     1.0    0.018633    0.453128    0.066236 Biso 1.000000  H     
 H8     1.0    0.593367    0.953128    0.589764 Biso 1.000000  H     
 H9     1.0    0.247253    0.249626    0.395093 Biso 1.000000  H     
 H10    1.0    0.364746    0.749626    0.260907 Biso 1.000000  H     
 H11    1.0    0.747253    0.249626    0.760907 Biso 1.000000  H     
 H12    1.0    0.864747    0.749626    0.895093 Biso 1.000000  H     
 H13    1.0    0.727753    0.310329    0.201394 Biso 1.000000  H     
 H14    1.0    0.884247    0.810329    0.454606 Biso 1.000000  H     
 H15    1.0    0.227753    0.310329    0.954606 Biso 1.000000  H     
 H16    1.0    0.384247    0.810329    0.701394 Biso 1.000000  H     
 H17    1.0    0.723996    0.337741    0.417444 Biso 1.000000  H     
 H18    1.0    0.888004    0.837741    0.238556 Biso 1.000000  H     
 H19    1.0    0.223996    0.337741    0.738556 Biso 1.000000  H     
 H20    1.0    0.388004    0.837741    0.917444 Biso 1.000000  H     
 H21    1.0    0.660234    0.210022    0.342673 Biso 1.000000  H     
 H22    1.0    0.951766    0.710022    0.313327 Biso 1.000000  H     
 H23    1.0    0.160234    0.210022    0.813327 Biso 1.000000  H     
 H24    1.0    0.451766    0.710022    0.842673 Biso 1.000000  H     
 H25    1.0    0.903077    0.183884    0.223460 Biso 1.000000  H     
 H26    1.0    0.708923    0.683884    0.432540 Biso 1.000000  H     
 H27    1.0    0.403077    0.183884    0.932540 Biso 1.000000  H     
 H28    1.0    0.208923    0.683884    0.723460 Biso 1.000000  H     
 H29    1.0    0.884909    0.169919    0.432688 Biso 1.000000  H     
 H30    1.0    0.727091    0.669919    0.223312 Biso 1.000000  H     
 H31    1.0    0.384909    0.169919    0.723312 Biso 1.000000  H     
 H32    1.0    0.227091    0.669919    0.932688 Biso 1.000000  H     
 N1     1.0    0.740230    0.274533    0.324071 Biso 1.000000  N     
 N2     1.0    0.871770    0.774533    0.331929 Biso 1.000000  N     
 N3     1.0    0.240230    0.274533    0.831929 Biso 1.000000  N     
 N4     1.0    0.371770    0.774533    0.824071 Biso 1.000000  N     
 N5     1.0    0.890247    0.229247    0.335339 Biso 1.000000  N     
 N6     1.0    0.721753    0.729247    0.320661 Biso 1.000000  N     
 N7     1.0    0.390247    0.229247    0.820661 Biso 1.000000  N     
 N8     1.0    0.221753    0.729247    0.835339 Biso 1.000000  N     
