_cell_length_a     8.9908
_cell_length_b    11.6594
_cell_length_c     7.8253
_cell_angle_alpha 90.0
_cell_angle_beta 90.0
_cell_angle_gamma 90.0
_space_group_IT_number                 1
 loop_
 _space_group_symop_operation_xyz 
 'x, y, z' 
 loop_ 
 _atom_site_label 
 _atom_site_occupancy 
 _atom_site_fract_x 
 _atom_site_fract_y
 _atom_site_fract_z
 _atom_site_adp_type
 _atom_site_U_iso_or_equiv
 _atom_site_type_symbol
 Mn1    1.0    0.285765    0.499904    0.327051 Biso 1.000000  Mn    
 Mn2    1.0    0.227035   -0.000096    0.328949 Biso 1.000000  Mn    
 Mn3    1.0    0.785765    0.499904    0.828949 Biso 1.000000  Mn    
 Mn4    1.0    0.727035   -0.000096    0.827051 Biso 1.000000  Mn    
 O1     1.0    0.500995    0.425036    0.405325 Biso 1.000000  O     
 O2     1.0    0.011805    0.925036    0.250675 Biso 1.000000  O     
 O3     1.0    1.000995    0.425036    0.750675 Biso 1.000000  O     
 O4     1.0    0.511805    0.925036    0.905325 Biso 1.000000  O     
 O5     1.0    0.689331    0.427443    0.593401 Biso 1.000000  O     
 O6     1.0    0.823469    0.927443    0.062599 Biso 1.000000  O     
 O7     1.0    0.189331    0.427443    0.562599 Biso 1.000000  O     
 O8     1.0    0.323469    0.927443    0.093401 Biso 1.000000  O     
 O9     1.0    0.379738    0.571274    0.089569 Biso 1.000000  O     
 O10    1.0    0.133062    0.071274    0.566431 Biso 1.000000  O     
 O11    1.0    0.879738    0.571274    0.066431 Biso 1.000000  O     
 O12    1.0    0.633062    0.071274    0.589569 Biso 1.000000  O     
 O13    1.0    0.569098    0.574064    0.903089 Biso 1.000000  O     
 O14    1.0   -0.056298    0.074064    0.752911 Biso 1.000000  O     
 O15    1.0    0.069098    0.574064    0.252911 Biso 1.000000  O     
 O16    1.0    0.443702    0.074064    0.403089 Biso 1.000000  O     
 O17    1.0    0.238516    0.342759    0.181037 Biso 1.000000  O     
 O18    1.0    0.274284    0.842759    0.474963 Biso 1.000000  O     
 O19    1.0    0.738516    0.342759    0.974963 Biso 1.000000  O     
 O20    1.0    0.774284    0.842759    0.681037 Biso 1.000000  O     
 O21    1.0    0.195656    0.158375    0.176211 Biso 1.000000  O     
 O22    1.0    0.317144    0.658375    0.479789 Biso 1.000000  O     
 O23    1.0    0.695656    0.158375    0.979789 Biso 1.000000  O     
 O24    1.0    0.817144    0.658375    0.676212 Biso 1.000000  O     
 C1     1.0    0.567912    0.465147    0.534839 Biso 1.000000  C     
 C2     1.0   -0.055112    0.965147    0.121161 Biso 1.000000  C     
 C3     1.0    0.067912    0.465147    0.621161 Biso 1.000000  C     
 C4     1.0    0.444888    0.965147    0.034839 Biso 1.000000  C     
 C5     1.0    0.510728    0.545121    0.043081 Biso 1.000000  C     
 C6     1.0    0.002072    0.045121    0.612919 Biso 1.000000  C     
 C7     1.0    1.010728    0.545121    0.112919 Biso 1.000000  C     
 C8     1.0    0.502072    0.045121    0.543081 Biso 1.000000  C     
 C9     1.0    0.210503    0.250843    0.254554 Biso 1.000000  C     
 C10    1.0    0.302297    0.750843    0.401446 Biso 1.000000  C     
 C11    1.0    0.710503    0.250843    0.901446 Biso 1.000000  C     
 C12    1.0    0.802297    0.750843    0.754554 Biso 1.000000  C     
 H1     1.0    0.517004    0.537286    0.599991 Biso 1.000000  H     
 H2     1.0   -0.004204    1.037286    0.056009 Biso 1.000000  H     
 H3     1.0    1.017004    0.537286    0.556009 Biso 1.000000  H     
 H4     1.0    0.495796    1.037286    0.099991 Biso 1.000000  H     
 H5     1.0    0.576083    0.493470    0.130671 Biso 1.000000  H     
 H6     1.0   -0.063283    0.993470    0.525329 Biso 1.000000  H     
 H7     1.0    0.076083    0.493470    0.025329 Biso 1.000000  H     
 H8     1.0    0.436717    0.993470    0.630671 Biso 1.000000  H     
 H9     1.0    0.197654    0.250624    0.395093 Biso 1.000000  H     
 H10    1.0    0.315147    0.750624    0.260907 Biso 1.000000  H     
 H11    1.0    0.697653    0.250624    0.760907 Biso 1.000000  H     
 H12    1.0    0.815147    0.750624    0.895093 Biso 1.000000  H     
 H13    1.0    0.678545    0.145201    0.339236 Biso 1.000000  H     
 H14    1.0    0.834255    0.645201    0.316764 Biso 1.000000  H     
 H15    1.0    0.178530    0.145175    0.817613 Biso 1.000000  H     
 H16    1.0    0.334270    0.645175    0.838387 Biso 1.000000  H     
 H17    1.0    0.672827    0.244002    0.175986 Biso 1.000000  H     
 H18    1.0    0.839973    0.744002    0.480014 Biso 1.000000  H     
 H19    1.0    0.172854    0.244561    0.980075 Biso 1.000000  H     
 H20    1.0    0.339946    0.744561    0.675925 Biso 1.000000  H     
 H21    1.0    0.610981    0.281282    0.373561 Biso 1.000000  H     
 H22    1.0    0.901819    0.781282    0.282439 Biso 1.000000  H     
 H23    1.0    0.110977    0.281136    0.782221 Biso 1.000000  H     
 H24    1.0    0.401823    0.781136    0.873779 Biso 1.000000  H     
 H25    1.0    0.855003    0.233846    0.473436 Biso 1.000000  H     
 H26    1.0    0.657797    0.733846    0.182564 Biso 1.000000  H     
 H27    1.0    0.354976    0.233324    0.682668 Biso 1.000000  H     
 H28    1.0    0.157824    0.733324    0.973332 Biso 1.000000  H     
 H29    1.0    0.835359    0.354031    0.363575 Biso 1.000000  H     
 H30    1.0    0.677441    0.854031    0.292425 Biso 1.000000  H     
 H31    1.0    0.335367    0.353902    0.791575 Biso 1.000000  H     
 H32    1.0    0.177433    0.853902    0.864425 Biso 1.000000  H     
 N1     1.0    0.690443    0.232424    0.307244 Biso 1.000000  N     
 N2     1.0    0.822357    0.732424    0.348756 Biso 1.000000  N     
 N3     1.0    0.190445    0.232511    0.848907 Biso 1.000000  N     
 N4     1.0    0.322355    0.732511    0.807093 Biso 1.000000  N     
 N5     1.0    0.840834    0.266120    0.352089 Biso 1.000000  N     
 N6     1.0    0.671966    0.766120    0.303911 Biso 1.000000  N     
 N7     1.0    0.340832    0.266033    0.803760 Biso 1.000000  N     
 N8     1.0    0.171968    0.766033    0.852240 Biso 1.000000  N     
