_cell_length_a     8.9908
_cell_length_b    11.6594
_cell_length_c     7.8253
_cell_angle_alpha 90.0
_cell_angle_beta 90.0
_cell_angle_gamma 90.0
_space_group_IT_number                 1
 loop_
 _space_group_symop_operation_xyz 
 'x, y, z' 
 loop_ 
 _atom_site_label 
 _atom_site_occupancy 
 _atom_site_fract_x 
 _atom_site_fract_y
 _atom_site_fract_z
 _atom_site_adp_type
 _atom_site_U_iso_or_equiv
 _atom_site_type_symbol
 Mn1    1.0    0.292941    0.499673    0.326418 Biso 1.000000  Mn    
 Mn2    1.0    0.195059   -0.000327    0.329582 Biso 1.000000  Mn    
 Mn3    1.0    0.792941    0.499673    0.829582 Biso 1.000000  Mn    
 Mn4    1.0    0.695059   -0.000327    0.826418 Biso 1.000000  Mn    
 O1     1.0    0.507692    0.424569    0.406071 Biso 1.000000  O     
 O2     1.0   -0.019692    0.924569    0.249929 Biso 1.000000  O     
 O3     1.0    1.007692    0.424569    0.749929 Biso 1.000000  O     
 O4     1.0    0.480308    0.924569    0.906071 Biso 1.000000  O     
 O5     1.0    0.695687    0.426848    0.594678 Biso 1.000000  O     
 O6     1.0    0.792313    0.926848    0.061322 Biso 1.000000  O     
 O7     1.0    0.195687    0.426848    0.561322 Biso 1.000000  O     
 O8     1.0    0.292313    0.926848    0.094678 Biso 1.000000  O     
 O9     1.0    0.386094    0.570679    0.088292 Biso 1.000000  O     
 O10    1.0    0.101906    0.070679    0.567708 Biso 1.000000  O     
 O11    1.0    0.886094    0.570679    0.067708 Biso 1.000000  O     
 O12    1.0    0.601906    0.070679    0.588292 Biso 1.000000  O     
 O13    1.0    0.575795    0.573597    0.902343 Biso 1.000000  O     
 O14    1.0   -0.087795    0.073597    0.753657 Biso 1.000000  O     
 O15    1.0    0.075795    0.573597    0.253657 Biso 1.000000  O     
 O16    1.0    0.412205    0.073597    0.402343 Biso 1.000000  O     
 O17    1.0    0.240402    0.342970    0.182645 Biso 1.000000  O     
 O18    1.0    0.247598    0.842970    0.473355 Biso 1.000000  O     
 O19    1.0    0.740402    0.342970    0.973354 Biso 1.000000  O     
 O20    1.0    0.747598    0.842970    0.682645 Biso 1.000000  O     
 O21    1.0    0.168970    0.158586    0.174603 Biso 1.000000  O     
 O22    1.0    0.319030    0.658586    0.481397 Biso 1.000000  O     
 O23    1.0    0.668970    0.158586    0.981397 Biso 1.000000  O     
 O24    1.0    0.819030    0.658586    0.674603 Biso 1.000000  O     
 C1     1.0    0.577458    0.468403    0.532092 Biso 1.000000  C     
 C2     1.0   -0.089458    0.968403    0.123908 Biso 1.000000  C     
 C3     1.0    0.077458    0.468403    0.623908 Biso 1.000000  C     
 C4     1.0    0.410542    0.968403    0.032092 Biso 1.000000  C     
 C5     1.0    0.520274    0.548377    0.045828 Biso 1.000000  C     
 C6     1.0   -0.032274    0.048377    0.610172 Biso 1.000000  C     
 C7     1.0    1.020274    0.548377    0.110172 Biso 1.000000  C     
 C8     1.0    0.467726    0.048377    0.545828 Biso 1.000000  C     
 C9     1.0    0.198103    0.251238    0.254554 Biso 1.000000  C     
 C10    1.0    0.289897    0.751238    0.401446 Biso 1.000000  C     
 C11    1.0    0.698103    0.251238    0.901446 Biso 1.000000  C     
 C12    1.0    0.789897    0.751238    0.754554 Biso 1.000000  C     
 H1     1.0    0.531367    0.547372    0.589764 Biso 1.000000  H     
 H2     1.0   -0.043367    1.047372    0.066236 Biso 1.000000  H     
 H3     1.0    1.031367    0.547372    0.566236 Biso 1.000000  H     
 H4     1.0    0.456633    1.047372    0.089764 Biso 1.000000  H     
 H5     1.0    0.590446    0.503556    0.140898 Biso 1.000000  H     
 H6     1.0   -0.102446    1.003556    0.515102 Biso 1.000000  H     
 H7     1.0    0.090446    0.503556    0.015102 Biso 1.000000  H     
 H8     1.0    0.397554    1.003556    0.640898 Biso 1.000000  H     
 H9     1.0    0.185254    0.250874    0.395093 Biso 1.000000  H     
 H10    1.0    0.302747    0.750874    0.260907 Biso 1.000000  H     
 H11    1.0    0.685253    0.250874    0.760907 Biso 1.000000  H     
 H12    1.0    0.802747    0.750874    0.895093 Biso 1.000000  H     
 H13    1.0    0.667210    0.163088    0.419898 Biso 1.000000  H     
 H14    1.0    0.820790    0.663088    0.236102 Biso 1.000000  H     
 H15    1.0    0.167173    0.162696    0.736979 Biso 1.000000  H     
 H16    1.0    0.320827    0.662696    0.919021 Biso 1.000000  H     
 H17    1.0    0.660582    0.189256    0.203597 Biso 1.000000  H     
 H18    1.0    0.827418    0.689256    0.452403 Biso 1.000000  H     
 H19    1.0    0.160599    0.189833    0.953018 Biso 1.000000  H     
 H20    1.0    0.327401    0.689833    0.702982 Biso 1.000000  H     
 H21    1.0    0.598229    0.290496    0.342464 Biso 1.000000  H     
 H22    1.0    0.889771    0.790496    0.313536 Biso 1.000000  H     
 H23    1.0    0.098234    0.290456    0.813165 Biso 1.000000  H     
 H24    1.0    0.389766    0.790456    0.842835 Biso 1.000000  H     
 H25    1.0    0.842667    0.286861    0.463597 Biso 1.000000  H     
 H26    1.0    0.645333    0.786861    0.192403 Biso 1.000000  H     
 H27    1.0    0.342645    0.286250    0.692000 Biso 1.000000  H     
 H28    1.0    0.145355    0.786250    0.964000 Biso 1.000000  H     
 H29    1.0    0.821861    0.350011    0.275926 Biso 1.000000  H     
 H30    1.0    0.666139    0.850011    0.380074 Biso 1.000000  H     
 H31    1.0    0.321892    0.350242    0.879044 Biso 1.000000  H     
 H32    1.0    0.166108    0.850242    0.776956 Biso 1.000000  H     
 N1     1.0    0.678232    0.225952    0.324158 Biso 1.000000  N     
 N2     1.0    0.809768    0.725952    0.331842 Biso 1.000000  N     
 N3     1.0    0.178229    0.225986    0.832089 Biso 1.000000  N     
 N4     1.0    0.309771    0.725986    0.823911 Biso 1.000000  N     
 N5     1.0    0.828244    0.271275    0.335189 Biso 1.000000  N     
 N6     1.0    0.659756    0.771275    0.320811 Biso 1.000000  N     
 N7     1.0    0.328247    0.271242    0.820564 Biso 1.000000  N     
 N8     1.0    0.159753    0.771242    0.835436 Biso 1.000000  N     
