_cell_length_a                         12.531950
_cell_length_b                         12.531950
_cell_length_c                         8.252197
_cell_angle_alpha                      90.000000
_cell_angle_beta                       90.000000
_cell_angle_gamma                      120.000008
_space_group_IT_number                 1
 loop_
 _space_group_symop_operation_xyz 
 'x, y, z' 
 loop_ 
 _atom_site_label 
 _atom_site_occupancy 
 _atom_site_fract_x 
 _atom_site_fract_y
 _atom_site_fract_z
 _atom_site_adp_type
 _atom_site_U_iso_or_equiv
 _atom_site_type_symbol
 Ni1    1.0    0.164255    0.162406    0.755958 Biso 1.000000  Ni    
 Ni2    1.0    0.828151    0.495745    0.755958 Biso 1.000000  Ni    
 Ni3    1.0    0.497594    0.831849    0.755958 Biso 1.000000  Ni    
 Ni4    1.0    0.495745    0.497594    0.255958 Biso 1.000000  Ni    
 Ni5    1.0    0.831849    0.164255    0.255958 Biso 1.000000  Ni    
 Ni6    1.0    0.162406    0.828151    0.255958 Biso 1.000000  Ni    
 O1     1.0    0.101356    0.256291    0.900367 Biso 1.000000  O     
 O2     1.0    0.984935    0.558644    0.900367 Biso 1.000000  O     
 O3     1.0    0.403709    0.675065    0.900367 Biso 1.000000  O     
 O4     1.0    0.558644    0.403709    0.400367 Biso 1.000000  O     
 O5     1.0    0.675065    0.101356    0.400367 Biso 1.000000  O     
 O6     1.0    0.256291    0.984935    0.400367 Biso 1.000000  O     
 O7     1.0    0.989937    0.254983    0.112697 Biso 1.000000  O     
 O8     1.0    0.095045    0.670063    0.112697 Biso 1.000000  O     
 O9     1.0    0.405017    0.564955    0.112697 Biso 1.000000  O     
 O10    1.0    0.670063    0.405017    0.612697 Biso 1.000000  O     
 O11    1.0    0.564955    0.989937    0.612697 Biso 1.000000  O     
 O12    1.0    0.254983    0.095045    0.612697 Biso 1.000000  O     
 O13    1.0    0.323019    0.227070    0.898828 Biso 1.000000  O     
 O14    1.0    0.734052    0.336981    0.898828 Biso 1.000000  O     
 O15    1.0    0.432930    0.925948    0.898828 Biso 1.000000  O     
 O16    1.0    0.336981    0.432930    0.398828 Biso 1.000000  O     
 O17    1.0    0.925948    0.323019    0.398828 Biso 1.000000  O     
 O18    1.0    0.227070    0.734052    0.398828 Biso 1.000000  O     
 O19    1.0    0.429955    0.338692    0.112746 Biso 1.000000  O     
 O20    1.0    0.738736    0.230045    0.112746 Biso 1.000000  O     
 O21    1.0    0.321308    0.921264    0.112746 Biso 1.000000  O     
 O22    1.0    0.230045    0.321308    0.612746 Biso 1.000000  O     
 O23    1.0    0.921264    0.429955    0.612746 Biso 1.000000  O     
 O24    1.0    0.338692    0.738736    0.612746 Biso 1.000000  O     
 O25    1.0    0.072022    0.003699    0.899300 Biso 1.000000  O     
 O26    1.0    0.761676    0.587978    0.899300 Biso 1.000000  O     
 O27    1.0    0.656301    0.898324    0.899300 Biso 1.000000  O     
 O28    1.0    0.587978    0.656301    0.399300 Biso 1.000000  O     
 O29    1.0    0.898324    0.072022    0.399300 Biso 1.000000  O     
 O30    1.0    0.003699    0.761676    0.399300 Biso 1.000000  O     
 O31    1.0    0.068919    0.893509    0.114082 Biso 1.000000  O     
 O32    1.0    0.654590    0.591081    0.114082 Biso 1.000000  O     
 O33    1.0    0.766491    0.005410    0.114082 Biso 1.000000  O     
 O34    1.0    0.591081    0.766491    0.614082 Biso 1.000000  O     
 O35    1.0    0.005410    0.068919    0.614082 Biso 1.000000  O     
 O36    1.0    0.893509    0.654590    0.614082 Biso 1.000000  O     
 C1     1.0    0.016276    0.200091    0.003433 Biso 1.000000  C     
 C2     1.0    0.013815    0.643724    0.003433 Biso 1.000000  C     
 C3     1.0    0.459909    0.646185    0.003433 Biso 1.000000  C     
 C4     1.0    0.643724    0.459909    0.503433 Biso 1.000000  C     
 C5     1.0    0.646185    0.016276    0.503433 Biso 1.000000  C     
 C6     1.0    0.200091    0.013815    0.503433 Biso 1.000000  C     
 C7     1.0    0.352883    0.313888   -0.001277 Biso 1.000000  C     
 C8     1.0    0.791005    0.307117   -0.001277 Biso 1.000000  C     
 C9     1.0    0.346112    0.868995   -0.001277 Biso 1.000000  C     
 C10    1.0    0.307117    0.346112    0.498723 Biso 1.000000  C     
 C11    1.0    0.868995    0.352883    0.498723 Biso 1.000000  C     
 C12    1.0    0.313888    0.791005    0.498723 Biso 1.000000  C     
 C13    1.0    0.125441    0.979230    1.012294 Biso 1.000000  C     
 C14    1.0    0.683789    0.534559    1.012294 Biso 1.000000  C     
 C15    1.0    0.680770    0.976211    1.012294 Biso 1.000000  C     
 C16    1.0    0.534559    0.680770    0.512294 Biso 1.000000  C     
 C17    1.0    0.976211    0.125441    0.512294 Biso 1.000000  C     
 C18    1.0    0.979230    0.683789    0.512294 Biso 1.000000  C     
 H1     1.0    0.961866    0.098992   -0.000699 Biso 1.000000  H     
 H2     1.0    0.967127    0.698134   -0.000699 Biso 1.000000  H     
 H3     1.0    0.561008    0.692873   -0.000699 Biso 1.000000  H     
 H4     1.0    0.698134    0.561008    0.499301 Biso 1.000000  H     
 H5     1.0    0.692873    0.961866    0.499301 Biso 1.000000  H     
 H6     1.0    0.098992    0.967127    0.499301 Biso 1.000000  H     
 H7     1.0    0.310118    0.370743   -0.012450 Biso 1.000000  H     
 H8     1.0    0.890625    0.349882   -0.012450 Biso 1.000000  H     
 H9     1.0    0.289257    0.769375   -0.012450 Biso 1.000000  H     
 H10    1.0    0.349882    0.289257    0.487550 Biso 1.000000  H     
 H11    1.0    0.769375    0.310118    0.487550 Biso 1.000000  H     
 H12    1.0    0.370743    0.890625    0.487550 Biso 1.000000  H     
 H13    1.0    0.225641    0.035772    1.020652 Biso 1.000000  H     
 H14    1.0    0.640132    0.434359    1.020652 Biso 1.000000  H     
 H15    1.0    0.624228    0.019868    1.020652 Biso 1.000000  H     
 H16    1.0    0.434359    0.624228    0.520652 Biso 1.000000  H     
 H17    1.0    0.019868    0.225641    0.520652 Biso 1.000000  H     
 H18    1.0    0.035772    0.640132    0.520652 Biso 1.000000  H     
 H19    1.0    0.075929    0.436885    0.678632 Biso 1.000000  H     
 H20    1.0    0.206628    0.446908    0.760944 Biso 1.000000  H     
 H21    1.0    0.218237    0.565409    0.645064 Biso 1.000000  H     
 H22    1.0    0.591417    0.195824    0.211214 Biso 1.000000  H     
 H23    1.0    0.460719    0.185801    0.128902 Biso 1.000000  H     
 H24    1.0    0.449109    0.067300    0.244783 Biso 1.000000  H     
 H25    1.0    0.151812    0.539380    0.827089 Biso 1.000000  H     
 H26    1.0    0.485211    0.205981    0.327089 Biso 1.000000  H     
 H27    1.0    0.540586    0.113894    0.761655 Biso 1.000000  H     
 H28    1.0    0.551781    0.232499    0.645851 Biso 1.000000  H     
 H29    1.0    0.409587    0.103097    0.678492 Biso 1.000000  H     
 H30    1.0    0.127232    0.519190    0.128924 Biso 1.000000  H     
 H31    1.0    0.116038    0.400585    0.244730 Biso 1.000000  H     
 H32    1.0    0.258230    0.529986    0.212087 Biso 1.000000  H     
 H33    1.0    0.484445    0.205488    0.827468 Biso 1.000000  H     
 H34    1.0    0.151045    0.538888    0.327468 Biso 1.000000  H     
 H35    1.0    0.837168    0.914152    0.250663 Biso 1.000000  H     
 H36    1.0    0.742249    0.770890    0.332593 Biso 1.000000  H     
 H37    1.0    0.899219    0.845573    0.366793 Biso 1.000000  H     
 H38    1.0    0.815257    0.772925    0.882704 Biso 1.000000  H     
 H39    1.0    0.910176    0.916186    0.800774 Biso 1.000000  H     
 H40    1.0    0.753206    0.841503    0.766574 Biso 1.000000  H     
 H41    1.0    0.841872    0.787566    0.184548 Biso 1.000000  H     
 H42    1.0    0.841872    0.787566    0.684548 Biso 1.000000  H     
 N1     1.0    0.163300    0.496699    0.726938 Biso 1.000000  N     
 N2     1.0    0.496700    0.163299    0.226938 Biso 1.000000  N     
 N3     1.0    0.496700    0.163299    0.727254 Biso 1.000000  N     
 N4     1.0    0.163301    0.496699    0.227254 Biso 1.000000  N     
 N5     1.0    0.830000    0.830001    0.284727 Biso 1.000000  N     
 N6     1.0    0.830000    0.830001    0.784727 Biso 1.000000  N     
