_cell_length_a                         12.531950
_cell_length_b                         12.531950
_cell_length_c                         8.252197
_cell_angle_alpha                      90.000000
_cell_angle_beta                       90.000000
_cell_angle_gamma                      120.000008
_space_group_IT_number                 1
 loop_
 _space_group_symop_operation_xyz 
 'x, y, z' 
 loop_ 
 _atom_site_label 
 _atom_site_occupancy 
 _atom_site_fract_x 
 _atom_site_fract_y
 _atom_site_fract_z
 _atom_site_adp_type
 _atom_site_U_iso_or_equiv
 _atom_site_type_symbol
 Ni1    1.0    0.163330    0.163330    0.755000 Biso 1.000000  Ni    
 Ni2    1.0    0.830000    0.496669    0.755000 Biso 1.000000  Ni    
 Ni3    1.0    0.496669    0.830000    0.755000 Biso 1.000000  Ni    
 Ni4    1.0    0.496669    0.496669    0.255000 Biso 1.000000  Ni    
 Ni5    1.0    0.830000    0.163330    0.255000 Biso 1.000000  Ni    
 Ni6    1.0    0.163330    0.830000    0.255000 Biso 1.000000  Ni    
 O1     1.0    0.098200    0.255637    0.898835 Biso 1.000000  O     
 O2     1.0    0.987436    0.561800    0.898835 Biso 1.000000  O     
 O3     1.0    0.404363    0.672564    0.898835 Biso 1.000000  O     
 O4     1.0    0.561800    0.404363    0.398835 Biso 1.000000  O     
 O5     1.0    0.672564    0.098200    0.398835 Biso 1.000000  O     
 O6     1.0    0.255637    0.987436    0.398835 Biso 1.000000  O     
 O7     1.0    0.987436    0.255637    0.111165 Biso 1.000000  O     
 O8     1.0    0.098200    0.672564    0.111165 Biso 1.000000  O     
 O9     1.0    0.404363    0.561800    0.111165 Biso 1.000000  O     
 O10    1.0    0.672564    0.404363    0.611165 Biso 1.000000  O     
 O11    1.0    0.561800    0.987436    0.611165 Biso 1.000000  O     
 O12    1.0    0.255637    0.098200    0.611165 Biso 1.000000  O     
 O13    1.0    0.322164    0.228557    0.898041 Biso 1.000000  O     
 O14    1.0    0.736394    0.337836    0.898041 Biso 1.000000  O     
 O15    1.0    0.431443    0.923606    0.898041 Biso 1.000000  O     
 O16    1.0    0.337836    0.431443    0.398041 Biso 1.000000  O     
 O17    1.0    0.923606    0.322164    0.398041 Biso 1.000000  O     
 O18    1.0    0.228557    0.736394    0.398041 Biso 1.000000  O     
 O19    1.0    0.431443    0.337836    0.111959 Biso 1.000000  O     
 O20    1.0    0.736394    0.228557    0.111959 Biso 1.000000  O     
 O21    1.0    0.322164    0.923606    0.111959 Biso 1.000000  O     
 O22    1.0    0.228557    0.322164    0.611959 Biso 1.000000  O     
 O23    1.0    0.923606    0.431443    0.611959 Biso 1.000000  O     
 O24    1.0    0.337836    0.736394    0.611959 Biso 1.000000  O     
 O25    1.0    0.070470    0.004555    0.897609 Biso 1.000000  O     
 O26    1.0    0.764084    0.589530    0.897609 Biso 1.000000  O     
 O27    1.0    0.655446    0.895917    0.897609 Biso 1.000000  O     
 O28    1.0    0.589530    0.655446    0.397609 Biso 1.000000  O     
 O29    1.0    0.895917    0.070470    0.397609 Biso 1.000000  O     
 O30    1.0    0.004555    0.764084    0.397609 Biso 1.000000  O     
 O31    1.0    0.070470    0.895917    0.112391 Biso 1.000000  O     
 O32    1.0    0.655446    0.589530    0.112391 Biso 1.000000  O     
 O33    1.0    0.764084    0.004555    0.112391 Biso 1.000000  O     
 O34    1.0    0.589530    0.764084    0.612391 Biso 1.000000  O     
 O35    1.0    0.004555    0.070470    0.612391 Biso 1.000000  O     
 O36    1.0    0.895917    0.655446    0.612391 Biso 1.000000  O     
 C1     1.0    0.015045    0.200091    0.005000 Biso 1.000000  C     
 C2     1.0    0.015045    0.644954    0.005000 Biso 1.000000  C     
 C3     1.0    0.459909    0.644954    0.005000 Biso 1.000000  C     
 C4     1.0    0.644954    0.459909    0.505000 Biso 1.000000  C     
 C5     1.0    0.644954    0.015045    0.505000 Biso 1.000000  C     
 C6     1.0    0.200091    0.015045    0.505000 Biso 1.000000  C     
 C7     1.0    0.349498    0.310503    0.005000 Biso 1.000000  C     
 C8     1.0    0.791005    0.310503    0.005000 Biso 1.000000  C     
 C9     1.0    0.349498    0.868995    0.005000 Biso 1.000000  C     
 C10    1.0    0.310503    0.349498    0.505000 Biso 1.000000  C     
 C11    1.0    0.868995    0.349498    0.505000 Biso 1.000000  C     
 C12    1.0    0.310503    0.791005    0.505000 Biso 1.000000  C     
 C13    1.0    0.125441    0.977720    1.005000 Biso 1.000000  C     
 C14    1.0    0.682279    0.534559    1.005000 Biso 1.000000  C     
 C15    1.0    0.682279    0.977720    1.005000 Biso 1.000000  C     
 C16    1.0    0.534559    0.682279    0.505000 Biso 1.000000  C     
 C17    1.0    0.977720    0.125441    0.505000 Biso 1.000000  C     
 C18    1.0    0.977720    0.682279    0.505000 Biso 1.000000  C     
 H1     1.0    0.964496    0.098992    0.005000 Biso 1.000000  H     
 H2     1.0    0.964496    0.695504    0.005000 Biso 1.000000  H     
 H3     1.0    0.561008    0.695504    0.005000 Biso 1.000000  H     
 H4     1.0    0.695504    0.561008    0.505000 Biso 1.000000  H     
 H5     1.0    0.695504    0.964496    0.505000 Biso 1.000000  H     
 H6     1.0    0.098992    0.964496    0.505000 Biso 1.000000  H     
 H7     1.0    0.299687    0.360313    0.005000 Biso 1.000000  H     
 H8     1.0    0.890625    0.360313    0.005000 Biso 1.000000  H     
 H9     1.0    0.299687    0.769375    0.005000 Biso 1.000000  H     
 H10    1.0    0.360313    0.299687    0.505000 Biso 1.000000  H     
 H11    1.0    0.769375    0.299687    0.505000 Biso 1.000000  H     
 H12    1.0    0.360313    0.890625    0.505000 Biso 1.000000  H     
 H13    1.0    0.225641    0.027820    1.005000 Biso 1.000000  H     
 H14    1.0    0.632180    0.434359    1.005000 Biso 1.000000  H     
 H15    1.0    0.632180    0.027820    1.005000 Biso 1.000000  H     
 H16    1.0    0.434359    0.632180    0.505000 Biso 1.000000  H     
 H17    1.0    0.027820    0.225641    0.505000 Biso 1.000000  H     
 H18    1.0    0.027820    0.632180    0.505000 Biso 1.000000  H     
 H19    1.0    0.101158    0.403888    0.727126 Biso 1.000000  H     
 H20    1.0    0.201139    0.503380    0.867164 Biso 1.000000  H     
 H21    1.0    0.233748    0.535830    0.670016 Biso 1.000000  H     
 H22    1.0    0.589663    0.224835    0.282558 Biso 1.000000  H     
 H23    1.0    0.489682    0.125342    0.142520 Biso 1.000000  H     
 H24    1.0    0.457073    0.092893    0.339668 Biso 1.000000  H     
 H25    1.0    0.115099    0.545616    0.754842 Biso 1.000000  H     
 H26    1.0    0.448499    0.212216    0.254842 Biso 1.000000  H     
 H27    1.0    0.534074    0.169781    0.868066 Biso 1.000000  H     
 H28    1.0    0.567706    0.203578    0.671047 Biso 1.000000  H     
 H29    1.0    0.435248    0.070469    0.726580 Biso 1.000000  H     
 H30    1.0    0.157154    0.459447    0.142250 Biso 1.000000  H     
 H31    1.0    0.123522    0.425650    0.339270 Biso 1.000000  H     
 H32    1.0    0.255979    0.558759    0.283735 Biso 1.000000  H     
 H33    1.0    0.447754    0.211531    0.755158 Biso 1.000000  H     
 H34    1.0    0.114354    0.544931    0.255158 Biso 1.000000  H     
 H35    1.0    0.837327    0.868320    0.142679 Biso 1.000000  H     
 H36    1.0    0.737002    0.767995    0.282067 Biso 1.000000  H     
 H37    1.0    0.869181    0.900174    0.340251 Biso 1.000000  H     
 H38    1.0    0.791680    0.822673    0.867321 Biso 1.000000  H     
 H39    1.0    0.892005    0.922998    0.727933 Biso 1.000000  H     
 H40    1.0    0.759826    0.790819    0.669749 Biso 1.000000  H     
 H41    1.0    0.878572    0.781428    0.255000 Biso 1.000000  H     
 H42    1.0    0.878572    0.781428    0.755000 Biso 1.000000  H     
 N1     1.0    0.163302    0.496699    0.754842 Biso 1.000000  N     
 N2     1.0    0.496701    0.163299    0.254842 Biso 1.000000  N     
 N3     1.0    0.496701    0.163299    0.755158 Biso 1.000000  N     
 N4     1.0    0.163302    0.496699    0.255158 Biso 1.000000  N     
 N5     1.0    0.829999    0.830001    0.255000 Biso 1.000000  N     
 N6     1.0    0.829999    0.830001    0.755000 Biso 1.000000  N     
