_cell_length_a                         12.531950
_cell_length_b                         12.531950
_cell_length_c                         8.252197
_cell_angle_alpha                      90.000000
_cell_angle_beta                       90.000000
_cell_angle_gamma                      120.000008
_space_group_IT_number                 1
 loop_
 _space_group_symop_operation_xyz 
 'x, y, z' 
 loop_ 
 _atom_site_label 
 _atom_site_occupancy 
 _atom_site_fract_x 
 _atom_site_fract_y
 _atom_site_fract_z
 _atom_site_adp_type
 _atom_site_U_iso_or_equiv
 _atom_site_type_symbol
 Ni1    1.0    0.161790    0.164871    0.753403 Biso 1.000000  Ni    
 Ni2    1.0    0.833081    0.498210    0.753403 Biso 1.000000  Ni    
 Ni3    1.0    0.495129    0.826919    0.753403 Biso 1.000000  Ni    
 Ni4    1.0    0.498210    0.495129    0.253403 Biso 1.000000  Ni    
 Ni5    1.0    0.826919    0.161790    0.253403 Biso 1.000000  Ni    
 Ni6    1.0    0.164871    0.833081    0.253403 Biso 1.000000  Ni    
 O1     1.0    0.092942    0.254547    0.896282 Biso 1.000000  O     
 O2     1.0    0.991604    0.567058    0.896282 Biso 1.000000  O     
 O3     1.0    0.405453    0.668396    0.896282 Biso 1.000000  O     
 O4     1.0    0.567058    0.405453    0.396282 Biso 1.000000  O     
 O5     1.0    0.668396    0.092942    0.396282 Biso 1.000000  O     
 O6     1.0    0.254547    0.991604    0.396282 Biso 1.000000  O     
 O7     1.0    0.983268    0.256727    0.108612 Biso 1.000000  O     
 O8     1.0    0.103459    0.676732    0.108612 Biso 1.000000  O     
 O9     1.0    0.403273    0.556541    0.108612 Biso 1.000000  O     
 O10    1.0    0.676732    0.403273    0.608612 Biso 1.000000  O     
 O11    1.0    0.556541    0.983268    0.608612 Biso 1.000000  O     
 O12    1.0    0.256727    0.103459    0.608612 Biso 1.000000  O     
 O13    1.0    0.320738    0.231036    0.896730 Biso 1.000000  O     
 O14    1.0    0.740298    0.339262    0.896730 Biso 1.000000  O     
 O15    1.0    0.428964    0.919702    0.896730 Biso 1.000000  O     
 O16    1.0    0.339262    0.428964    0.396730 Biso 1.000000  O     
 O17    1.0    0.919702    0.320738    0.396730 Biso 1.000000  O     
 O18    1.0    0.231036    0.740298    0.396730 Biso 1.000000  O     
 O19    1.0    0.433921    0.336411    0.110648 Biso 1.000000  O     
 O20    1.0    0.732490    0.226079    0.110648 Biso 1.000000  O     
 O21    1.0    0.323589    0.927510    0.110648 Biso 1.000000  O     
 O22    1.0    0.226079    0.323589    0.610648 Biso 1.000000  O     
 O23    1.0    0.927510    0.433921    0.610648 Biso 1.000000  O     
 O24    1.0    0.336411    0.732490    0.610648 Biso 1.000000  O     
 O25    1.0    0.067884    0.005981    0.894791 Biso 1.000000  O     
 O26    1.0    0.768096    0.592116    0.894791 Biso 1.000000  O     
 O27    1.0    0.654019    0.891904    0.894791 Biso 1.000000  O     
 O28    1.0    0.592116    0.654019    0.394791 Biso 1.000000  O     
 O29    1.0    0.891904    0.067884    0.394791 Biso 1.000000  O     
 O30    1.0    0.005981    0.768096    0.394791 Biso 1.000000  O     
 O31    1.0    0.073057    0.899929    0.109573 Biso 1.000000  O     
 O32    1.0    0.656872    0.586943    0.109573 Biso 1.000000  O     
 O33    1.0    0.760071    0.003128    0.109573 Biso 1.000000  O     
 O34    1.0    0.586943    0.760071    0.609573 Biso 1.000000  O     
 O35    1.0    0.003128    0.073057    0.609573 Biso 1.000000  O     
 O36    1.0    0.899929    0.656872    0.609573 Biso 1.000000  O     
 C1     1.0    0.012994    0.200091    0.007611 Biso 1.000000  C     
 C2     1.0    0.017097    0.647006    0.007611 Biso 1.000000  C     
 C3     1.0    0.459909    0.642903    0.007611 Biso 1.000000  C     
 C4     1.0    0.647006    0.459909    0.507611 Biso 1.000000  C     
 C5     1.0    0.642903    0.012994    0.507611 Biso 1.000000  C     
 C6     1.0    0.200091    0.017097    0.507611 Biso 1.000000  C     
 C7     1.0    0.343855    0.304860    0.015461 Biso 1.000000  C     
 C8     1.0    0.791005    0.316145    0.015461 Biso 1.000000  C     
 C9     1.0    0.355140    0.868995    0.015461 Biso 1.000000  C     
 C10    1.0    0.316145    0.355140    0.515461 Biso 1.000000  C     
 C11    1.0    0.868995    0.343855    0.515461 Biso 1.000000  C     
 C12    1.0    0.304860    0.791005    0.515461 Biso 1.000000  C     
 C13    1.0    0.125441    0.975204    0.992844 Biso 1.000000  C     
 C14    1.0    0.679763    0.534559    0.992844 Biso 1.000000  C     
 C15    1.0    0.684796    0.980237    0.992844 Biso 1.000000  C     
 C16    1.0    0.534559    0.684796    0.492844 Biso 1.000000  C     
 C17    1.0    0.980237    0.125441    0.492844 Biso 1.000000  C     
 C18    1.0    0.975204    0.679763    0.492844 Biso 1.000000  C     
 H1     1.0    0.968880    0.098992    0.014499 Biso 1.000000  H     
 H2     1.0    0.960113    0.691120    0.014499 Biso 1.000000  H     
 H3     1.0    0.561008    0.699887    0.014499 Biso 1.000000  H     
 H4     1.0    0.691120    0.561008    0.514499 Biso 1.000000  H     
 H5     1.0    0.699887    0.968880    0.514499 Biso 1.000000  H     
 H6     1.0    0.098992    0.960113    0.514499 Biso 1.000000  H     
 H7     1.0    0.282303    0.342928    0.034083 Biso 1.000000  H     
 H8     1.0    0.890625    0.377697    0.034083 Biso 1.000000  H     
 H9     1.0    0.317072    0.769375    0.034083 Biso 1.000000  H     
 H10    1.0    0.377697    0.317072    0.534083 Biso 1.000000  H     
 H11    1.0    0.769375    0.282303    0.534083 Biso 1.000000  H     
 H12    1.0    0.342928    0.890625    0.534083 Biso 1.000000  H     
 H13    1.0    0.225641    0.014567    0.978914 Biso 1.000000  H     
 H14    1.0    0.618927    0.434359    0.978914 Biso 1.000000  H     
 H15    1.0    0.645433    0.041073    0.978914 Biso 1.000000  H     
 H16    1.0    0.434359    0.645433    0.478914 Biso 1.000000  H     
 H17    1.0    0.041073    0.225641    0.478914 Biso 1.000000  H     
 H18    1.0    0.014567    0.618927    0.478914 Biso 1.000000  H     
 H19    1.0    0.137465    0.407368    0.840920 Biso 1.000000  H     
 H20    1.0    0.099903    0.522535    0.840920 Biso 1.000000  H     
 H21    1.0    0.252632    0.560097    0.840920 Biso 1.000000  H     
 H22    1.0    0.522535    0.252632    0.340920 Biso 1.000000  H     
 H23    1.0    0.560097    0.137465    0.340920 Biso 1.000000  H     
 H24    1.0    0.407368    0.099903    0.340920 Biso 1.000000  H     
 H25    1.0    0.163300    0.496700    0.677554 Biso 1.000000  H     
 H26    1.0    0.496700    0.163300    0.177554 Biso 1.000000  H     
 H27    1.0    0.432581    0.188488    0.841173 Biso 1.000000  H     
 H28    1.0    0.585907    0.227419    0.841173 Biso 1.000000  H     
 H29    1.0    0.471512    0.074092    0.841173 Biso 1.000000  H     
 H30    1.0    0.227419    0.471512    0.341173 Biso 1.000000  H     
 H31    1.0    0.074092    0.432581    0.341173 Biso 1.000000  H     
 H32    1.0    0.188488    0.585907    0.341173 Biso 1.000000  H     
 H33    1.0    0.496700    0.163300    0.677792 Biso 1.000000  H     
 H34    1.0    0.163300    0.496700    0.177792 Biso 1.000000  H     
 H35    1.0    0.919491    0.856354    0.165956 Biso 1.000000  H     
 H36    1.0    0.766864    0.740509    0.165956 Biso 1.000000  H     
 H37    1.0    0.803646    0.893136    0.165956 Biso 1.000000  H     
 H38    1.0    0.740509    0.803646    0.665956 Biso 1.000000  H     
 H39    1.0    0.893136    0.919491    0.665956 Biso 1.000000  H     
 H40    1.0    0.856354    0.766864    0.665956 Biso 1.000000  H     
 H41    1.0    0.830000    0.830000    0.329285 Biso 1.000000  H     
 H42    1.0    0.830000    0.830000    0.829285 Biso 1.000000  H     
 N1     1.0    0.163300    0.496700    0.801347 Biso 1.000000  N     
 N2     1.0    0.496700    0.163300    0.301347 Biso 1.000000  N     
 N3     1.0    0.496700    0.163300    0.801663 Biso 1.000000  N     
 N4     1.0    0.163300    0.496700    0.301663 Biso 1.000000  N     
 N5     1.0    0.830000    0.830000    0.205457 Biso 1.000000  N     
 N6     1.0    0.830000    0.830000    0.705457 Biso 1.000000  N     
