_cell_length_a                         12.531950
_cell_length_b                         12.531950
_cell_length_c                         8.252197
_cell_angle_alpha                      90.000000
_cell_angle_beta                       90.000000
_cell_angle_gamma                      120.000008
_space_group_IT_number                 1
 loop_
 _space_group_symop_operation_xyz 
 'x, y, z' 
 loop_ 
 _atom_site_label 
 _atom_site_occupancy 
 _atom_site_fract_x 
 _atom_site_fract_y
 _atom_site_fract_z
 _atom_site_adp_type
 _atom_site_U_iso_or_equiv
 _atom_site_type_symbol
 Ni1    1.0    0.164871    0.161790    0.756597 Biso 1.000000  Ni    
 Ni2    1.0    0.826919    0.495129    0.756597 Biso 1.000000  Ni    
 Ni3    1.0    0.498210    0.833081    0.756597 Biso 1.000000  Ni    
 Ni4    1.0    0.495129    0.498210    0.256597 Biso 1.000000  Ni    
 Ni5    1.0    0.833081    0.164871    0.256597 Biso 1.000000  Ni    
 Ni6    1.0    0.161790    0.826919    0.256597 Biso 1.000000  Ni    
 O1     1.0    0.103459    0.256727    0.901388 Biso 1.000000  O     
 O2     1.0    0.983268    0.556541    0.901388 Biso 1.000000  O     
 O3     1.0    0.403273    0.676732    0.901388 Biso 1.000000  O     
 O4     1.0    0.556541    0.403273    0.401388 Biso 1.000000  O     
 O5     1.0    0.676732    0.103459    0.401388 Biso 1.000000  O     
 O6     1.0    0.256727    0.983268    0.401388 Biso 1.000000  O     
 O7     1.0    0.991604    0.254547    0.113718 Biso 1.000000  O     
 O8     1.0    0.092942    0.668396    0.113718 Biso 1.000000  O     
 O9     1.0    0.405453    0.567058    0.113718 Biso 1.000000  O     
 O10    1.0    0.668396    0.405453    0.613718 Biso 1.000000  O     
 O11    1.0    0.567058    0.991604    0.613718 Biso 1.000000  O     
 O12    1.0    0.254547    0.092942    0.613718 Biso 1.000000  O     
 O13    1.0    0.323589    0.226079    0.899352 Biso 1.000000  O     
 O14    1.0    0.732490    0.336411    0.899352 Biso 1.000000  O     
 O15    1.0    0.433921    0.927510    0.899352 Biso 1.000000  O     
 O16    1.0    0.336411    0.433921    0.399352 Biso 1.000000  O     
 O17    1.0    0.927510    0.323589    0.399352 Biso 1.000000  O     
 O18    1.0    0.226079    0.732490    0.399352 Biso 1.000000  O     
 O19    1.0    0.428964    0.339262    0.113270 Biso 1.000000  O     
 O20    1.0    0.740298    0.231036    0.113270 Biso 1.000000  O     
 O21    1.0    0.320738    0.919702    0.113270 Biso 1.000000  O     
 O22    1.0    0.231036    0.320738    0.613270 Biso 1.000000  O     
 O23    1.0    0.919702    0.428964    0.613270 Biso 1.000000  O     
 O24    1.0    0.339262    0.740298    0.613270 Biso 1.000000  O     
 O25    1.0    0.073057    0.003128    0.900427 Biso 1.000000  O     
 O26    1.0    0.760071    0.586943    0.900427 Biso 1.000000  O     
 O27    1.0    0.656872    0.899929    0.900427 Biso 1.000000  O     
 O28    1.0    0.586943    0.656872    0.400427 Biso 1.000000  O     
 O29    1.0    0.899929    0.073057    0.400427 Biso 1.000000  O     
 O30    1.0    0.003128    0.760071    0.400427 Biso 1.000000  O     
 O31    1.0    0.067884    0.891904    0.115209 Biso 1.000000  O     
 O32    1.0    0.654019    0.592116    0.115209 Biso 1.000000  O     
 O33    1.0    0.768096    0.005981    0.115209 Biso 1.000000  O     
 O34    1.0    0.592116    0.768096    0.615209 Biso 1.000000  O     
 O35    1.0    0.005981    0.067884    0.615209 Biso 1.000000  O     
 O36    1.0    0.891904    0.654019    0.615209 Biso 1.000000  O     
 C1     1.0    0.017097    0.200091    0.002389 Biso 1.000000  C     
 C2     1.0    0.012994    0.642903    0.002389 Biso 1.000000  C     
 C3     1.0    0.459909    0.647006    0.002389 Biso 1.000000  C     
 C4     1.0    0.642903    0.459909    0.502389 Biso 1.000000  C     
 C5     1.0    0.647006    0.017097    0.502389 Biso 1.000000  C     
 C6     1.0    0.200091    0.012994    0.502389 Biso 1.000000  C     
 C7     1.0    0.355140    0.316145   -0.005461 Biso 1.000000  C     
 C8     1.0    0.791005    0.304860   -0.005461 Biso 1.000000  C     
 C9     1.0    0.343855    0.868995   -0.005461 Biso 1.000000  C     
 C10    1.0    0.304860    0.343855    0.494539 Biso 1.000000  C     
 C11    1.0    0.868995    0.355140    0.494539 Biso 1.000000  C     
 C12    1.0    0.316145    0.791005    0.494539 Biso 1.000000  C     
 C13    1.0    0.125441    0.980237    1.017156 Biso 1.000000  C     
 C14    1.0    0.684796    0.534559    1.017156 Biso 1.000000  C     
 C15    1.0    0.679763    0.975204    1.017156 Biso 1.000000  C     
 C16    1.0    0.534559    0.679763    0.517156 Biso 1.000000  C     
 C17    1.0    0.975204    0.125441    0.517156 Biso 1.000000  C     
 C18    1.0    0.980237    0.684796    0.517156 Biso 1.000000  C     
 H1     1.0    0.960113    0.098992   -0.004499 Biso 1.000000  H     
 H2     1.0    0.968880    0.699887   -0.004499 Biso 1.000000  H     
 H3     1.0    0.561008    0.691120   -0.004499 Biso 1.000000  H     
 H4     1.0    0.699887    0.561008    0.495501 Biso 1.000000  H     
 H5     1.0    0.691120    0.960113    0.495501 Biso 1.000000  H     
 H6     1.0    0.098992    0.968880    0.495501 Biso 1.000000  H     
 H7     1.0    0.317072    0.377697   -0.024083 Biso 1.000000  H     
 H8     1.0    0.890625    0.342928   -0.024083 Biso 1.000000  H     
 H9     1.0    0.282303    0.769375   -0.024083 Biso 1.000000  H     
 H10    1.0    0.342928    0.282303    0.475917 Biso 1.000000  H     
 H11    1.0    0.769375    0.317072    0.475917 Biso 1.000000  H     
 H12    1.0    0.377697    0.890625    0.475917 Biso 1.000000  H     
 H13    1.0    0.225641    0.041073    1.031086 Biso 1.000000  H     
 H14    1.0    0.645433    0.434359    1.031086 Biso 1.000000  H     
 H15    1.0    0.618927    0.014567    1.031086 Biso 1.000000  H     
 H16    1.0    0.434359    0.618927    0.531086 Biso 1.000000  H     
 H17    1.0    0.014567    0.225641    0.531086 Biso 1.000000  H     
 H18    1.0    0.041073    0.645433    0.531086 Biso 1.000000  H     
 H19    1.0    0.074156    0.471615    0.668764 Biso 1.000000  H     
 H20    1.0    0.188386    0.432741    0.668764 Biso 1.000000  H     
 H21    1.0    0.227260    0.585845    0.668764 Biso 1.000000  H     
 H22    1.0    0.585844    0.188385    0.168764 Biso 1.000000  H     
 H23    1.0    0.471614    0.227259    0.168764 Biso 1.000000  H     
 H24    1.0    0.432740    0.074155    0.168764 Biso 1.000000  H     
 H25    1.0    0.163300    0.496700    0.832130 Biso 1.000000  H     
 H26    1.0    0.496700    0.163300    0.332130 Biso 1.000000  H     
 H27    1.0    0.522639    0.099745    0.669143 Biso 1.000000  H     
 H28    1.0    0.560256    0.252695    0.669143 Biso 1.000000  H     
 H29    1.0    0.407305    0.137362    0.669143 Biso 1.000000  H     
 H30    1.0    0.137361    0.560255    0.169143 Biso 1.000000  H     
 H31    1.0    0.099744    0.407303    0.169143 Biso 1.000000  H     
 H32    1.0    0.252694    0.522639    0.169143 Biso 1.000000  H     
 H33    1.0    0.496700    0.163300    0.832524 Biso 1.000000  H     
 H34    1.0    0.163300    0.496700    0.332524 Biso 1.000000  H     
 H35    1.0    0.856354    0.919491    0.344044 Biso 1.000000  H     
 H36    1.0    0.740509    0.766864    0.344044 Biso 1.000000  H     
 H37    1.0    0.893136    0.803646    0.344044 Biso 1.000000  H     
 H38    1.0    0.803646    0.740509    0.844044 Biso 1.000000  H     
 H39    1.0    0.919491    0.893136    0.844044 Biso 1.000000  H     
 H40    1.0    0.766864    0.856354    0.844044 Biso 1.000000  H     
 H41    1.0    0.830000    0.830000    0.180715 Biso 1.000000  H     
 H42    1.0    0.830000    0.830000    0.680715 Biso 1.000000  H     
 N1     1.0    0.163300    0.496700    0.708337 Biso 1.000000  N     
 N2     1.0    0.496700    0.163300    0.208337 Biso 1.000000  N     
 N3     1.0    0.496700    0.163300    0.708653 Biso 1.000000  N     
 N4     1.0    0.163300    0.496700    0.208653 Biso 1.000000  N     
 N5     1.0    0.830000    0.830000    0.304543 Biso 1.000000  N     
 N6     1.0    0.830000    0.830000    0.804543 Biso 1.000000  N     
