_cell_length_a                         12.531950
_cell_length_b                         12.531950
_cell_length_c                         8.252197
_cell_angle_alpha                      90.000000
_cell_angle_beta                       90.000000
_cell_angle_gamma                      120.000008
_space_group_IT_number                 1
 loop_
 _space_group_symop_operation_xyz 
 'x, y, z' 
 loop_ 
 _atom_site_label 
 _atom_site_occupancy 
 _atom_site_fract_x 
 _atom_site_fract_y
 _atom_site_fract_z
 _atom_site_adp_type
 _atom_site_U_iso_or_equiv
 _atom_site_type_symbol
 Ni1    1.0    0.163639    0.163022    0.755319 Biso 1.000000  Ni    
 Ni2    1.0    0.829384    0.496361    0.755319 Biso 1.000000  Ni    
 Ni3    1.0    0.496978    0.830616    0.755319 Biso 1.000000  Ni    
 Ni4    1.0    0.496361    0.496978    0.255319 Biso 1.000000  Ni    
 Ni5    1.0    0.830616    0.163639    0.255319 Biso 1.000000  Ni    
 Ni6    1.0    0.163022    0.829384    0.255319 Biso 1.000000  Ni    
 O1     1.0    0.099252    0.255855    0.899346 Biso 1.000000  O     
 O2     1.0    0.986602    0.560748    0.899346 Biso 1.000000  O     
 O3     1.0    0.404145    0.673398    0.899346 Biso 1.000000  O     
 O4     1.0    0.560748    0.404145    0.399346 Biso 1.000000  O     
 O5     1.0    0.673398    0.099252    0.399346 Biso 1.000000  O     
 O6     1.0    0.255855    0.986602    0.399346 Biso 1.000000  O     
 O7     1.0    0.988270    0.255419    0.111676 Biso 1.000000  O     
 O8     1.0    0.097149    0.671730    0.111676 Biso 1.000000  O     
 O9     1.0    0.404581    0.562851    0.111676 Biso 1.000000  O     
 O10    1.0    0.671730    0.404581    0.611676 Biso 1.000000  O     
 O11    1.0    0.562851    0.988270    0.611676 Biso 1.000000  O     
 O12    1.0    0.255419    0.097149    0.611676 Biso 1.000000  O     
 O13    1.0    0.322449    0.228062    0.898303 Biso 1.000000  O     
 O14    1.0    0.735613    0.337551    0.898303 Biso 1.000000  O     
 O15    1.0    0.431938    0.924387    0.898303 Biso 1.000000  O     
 O16    1.0    0.337551    0.431938    0.398303 Biso 1.000000  O     
 O17    1.0    0.924387    0.322449    0.398303 Biso 1.000000  O     
 O18    1.0    0.228062    0.735613    0.398303 Biso 1.000000  O     
 O19    1.0    0.430947    0.338122    0.112221 Biso 1.000000  O     
 O20    1.0    0.737175    0.229053    0.112221 Biso 1.000000  O     
 O21    1.0    0.321878    0.922825    0.112221 Biso 1.000000  O     
 O22    1.0    0.229053    0.321878    0.612221 Biso 1.000000  O     
 O23    1.0    0.922825    0.430947    0.612221 Biso 1.000000  O     
 O24    1.0    0.338122    0.737175    0.612221 Biso 1.000000  O     
 O25    1.0    0.070988    0.004269    0.898173 Biso 1.000000  O     
 O26    1.0    0.763281    0.589012    0.898173 Biso 1.000000  O     
 O27    1.0    0.655731    0.896719    0.898173 Biso 1.000000  O     
 O28    1.0    0.589012    0.655731    0.398173 Biso 1.000000  O     
 O29    1.0    0.896719    0.070988    0.398173 Biso 1.000000  O     
 O30    1.0    0.004269    0.763281    0.398173 Biso 1.000000  O     
 O31    1.0    0.069953    0.895114    0.112955 Biso 1.000000  O     
 O32    1.0    0.655160    0.590047    0.112955 Biso 1.000000  O     
 O33    1.0    0.764886    0.004840    0.112955 Biso 1.000000  O     
 O34    1.0    0.590047    0.764886    0.612955 Biso 1.000000  O     
 O35    1.0    0.004840    0.069953    0.612955 Biso 1.000000  O     
 O36    1.0    0.895114    0.655160    0.612955 Biso 1.000000  O     
 C1     1.0    0.015456    0.200091    0.004478 Biso 1.000000  C     
 C2     1.0    0.014635    0.644544    0.004478 Biso 1.000000  C     
 C3     1.0    0.459909    0.645365    0.004478 Biso 1.000000  C     
 C4     1.0    0.644544    0.459909    0.504478 Biso 1.000000  C     
 C5     1.0    0.645365    0.015456    0.504478 Biso 1.000000  C     
 C6     1.0    0.200091    0.014635    0.504478 Biso 1.000000  C     
 C7     1.0    0.350626    0.311631    0.002908 Biso 1.000000  C     
 C8     1.0    0.791005    0.309374    0.002908 Biso 1.000000  C     
 C9     1.0    0.348369    0.868995    0.002908 Biso 1.000000  C     
 C10    1.0    0.309374    0.348369    0.502908 Biso 1.000000  C     
 C11    1.0    0.868995    0.350626    0.502908 Biso 1.000000  C     
 C12    1.0    0.311631    0.791005    0.502908 Biso 1.000000  C     
 C13    1.0    0.125441    0.978224    1.007431 Biso 1.000000  C     
 C14    1.0    0.682783    0.534559    1.007431 Biso 1.000000  C     
 C15    1.0    0.681776    0.977217    1.007431 Biso 1.000000  C     
 C16    1.0    0.534559    0.681776    0.507431 Biso 1.000000  C     
 C17    1.0    0.977217    0.125441    0.507431 Biso 1.000000  C     
 C18    1.0    0.978224    0.682783    0.507431 Biso 1.000000  C     
 H1     1.0    0.963620    0.098992    0.003100 Biso 1.000000  H     
 H2     1.0    0.965373    0.696380    0.003100 Biso 1.000000  H     
 H3     1.0    0.561008    0.694627    0.003100 Biso 1.000000  H     
 H4     1.0    0.696380    0.561008    0.503100 Biso 1.000000  H     
 H5     1.0    0.694627    0.963620    0.503100 Biso 1.000000  H     
 H6     1.0    0.098992    0.965373    0.503100 Biso 1.000000  H     
 H7     1.0    0.303164    0.363789   -0.000817 Biso 1.000000  H     
 H8     1.0    0.890625    0.356836   -0.000817 Biso 1.000000  H     
 H9     1.0    0.296211    0.769375   -0.000817 Biso 1.000000  H     
 H10    1.0    0.356836    0.296211    0.499183 Biso 1.000000  H     
 H11    1.0    0.769375    0.303164    0.499183 Biso 1.000000  H     
 H12    1.0    0.363789    0.890625    0.499183 Biso 1.000000  H     
 H13    1.0    0.225641    0.030471    1.010217 Biso 1.000000  H     
 H14    1.0    0.634831    0.434359    1.010217 Biso 1.000000  H     
 H15    1.0    0.629529    0.025169    1.010217 Biso 1.000000  H     
 H16    1.0    0.434359    0.629529    0.510217 Biso 1.000000  H     
 H17    1.0    0.025169    0.225641    0.510217 Biso 1.000000  H     
 H18    1.0    0.030471    0.634831    0.510217 Biso 1.000000  H     
 H19    1.0    0.090679    0.411196    0.706952 Biso 1.000000  H     
 H20    1.0    0.209777    0.483927    0.840136 Biso 1.000000  H     
 H21    1.0    0.224951    0.542492    0.652638 Biso 1.000000  H     
 H22    1.0    0.593068    0.213847    0.259672 Biso 1.000000  H     
 H23    1.0    0.473969    0.141116    0.126488 Biso 1.000000  H     
 H24    1.0    0.458795    0.082550    0.313986 Biso 1.000000  H     
 H25    1.0    0.126163    0.551370    0.783795 Biso 1.000000  H     
 H26    1.0    0.459563    0.217971    0.283795 Biso 1.000000  H     
 H27    1.0    0.543047    0.150569    0.841029 Biso 1.000000  H     
 H28    1.0    0.558882    0.210059    0.653653 Biso 1.000000  H     
 H29    1.0    0.424669    0.077699    0.706468 Biso 1.000000  H     
 H30    1.0    0.141210    0.475016    0.126265 Biso 1.000000  H     
 H31    1.0    0.125376    0.415526    0.313643 Biso 1.000000  H     
 H32    1.0    0.259588    0.547885    0.260825 Biso 1.000000  H     
 H33    1.0    0.458679    0.217243    0.784134 Biso 1.000000  H     
 H34    1.0    0.125279    0.550643    0.284135 Biso 1.000000  H     
 H35    1.0    0.831011    0.884652    0.170292 Biso 1.000000  H     
 H36    1.0    0.738926    0.771069    0.302858 Biso 1.000000  H     
 H37    1.0    0.884095    0.886256    0.358194 Biso 1.000000  H     
 H38    1.0    0.805011    0.809999    0.883939 Biso 1.000000  H     
 H39    1.0    0.897096    0.923583    0.751373 Biso 1.000000  H     
 H40    1.0    0.751927    0.808396    0.696037 Biso 1.000000  H     
 H41    1.0    0.867578    0.775694    0.226644 Biso 1.000000  H     
 H42    1.0    0.867578    0.775694    0.726644 Biso 1.000000  H     
 N1     1.0    0.163301    0.496698    0.745541 Biso 1.000000  N     
 N2     1.0    0.496701    0.163298    0.245541 Biso 1.000000  N     
 N3     1.0    0.496701    0.163298    0.745856 Biso 1.000000  N     
 N4     1.0    0.163301    0.496698    0.245857 Biso 1.000000  N     
 N5     1.0    0.829999    0.830002    0.264909 Biso 1.000000  N     
 N6     1.0    0.829999    0.830002    0.764909 Biso 1.000000  N     
