_cell_length_a                         12.531950
_cell_length_b                         12.531950
_cell_length_c                         8.252197
_cell_angle_alpha                      90.000000
_cell_angle_beta                       90.000000
_cell_angle_gamma                      120.000008
_space_group_IT_number                 1
 loop_
 _space_group_symop_operation_xyz 
 'x, y, z' 
 loop_ 
 _atom_site_label 
 _atom_site_occupancy 
 _atom_site_fract_x 
 _atom_site_fract_y
 _atom_site_fract_z
 _atom_site_adp_type
 _atom_site_U_iso_or_equiv
 _atom_site_type_symbol
 Ni1    1.0    0.162098    0.164563    0.753722 Biso 1.000000  Ni    
 Ni2    1.0    0.832465    0.497902    0.753722 Biso 1.000000  Ni    
 Ni3    1.0    0.495437    0.827535    0.753722 Biso 1.000000  Ni    
 Ni4    1.0    0.497902    0.495437    0.253722 Biso 1.000000  Ni    
 Ni5    1.0    0.827535    0.162098    0.253722 Biso 1.000000  Ni    
 Ni6    1.0    0.164563    0.832465    0.253722 Biso 1.000000  Ni    
 O1     1.0    0.093994    0.254765    0.896793 Biso 1.000000  O     
 O2     1.0    0.990770    0.566006    0.896793 Biso 1.000000  O     
 O3     1.0    0.405235    0.669230    0.896793 Biso 1.000000  O     
 O4     1.0    0.566006    0.405235    0.396793 Biso 1.000000  O     
 O5     1.0    0.669230    0.093994    0.396793 Biso 1.000000  O     
 O6     1.0    0.254765    0.990770    0.396793 Biso 1.000000  O     
 O7     1.0    0.984102    0.256509    0.109123 Biso 1.000000  O     
 O8     1.0    0.102407    0.675898    0.109123 Biso 1.000000  O     
 O9     1.0    0.403491    0.557593    0.109123 Biso 1.000000  O     
 O10    1.0    0.675898    0.403491    0.609123 Biso 1.000000  O     
 O11    1.0    0.557593    0.984102    0.609123 Biso 1.000000  O     
 O12    1.0    0.256509    0.102407    0.609123 Biso 1.000000  O     
 O13    1.0    0.321023    0.230540    0.896992 Biso 1.000000  O     
 O14    1.0    0.739517    0.338977    0.896992 Biso 1.000000  O     
 O15    1.0    0.429460    0.920483    0.896992 Biso 1.000000  O     
 O16    1.0    0.338977    0.429460    0.396992 Biso 1.000000  O     
 O17    1.0    0.920483    0.321023    0.396992 Biso 1.000000  O     
 O18    1.0    0.230540    0.739517    0.396992 Biso 1.000000  O     
 O19    1.0    0.433425    0.336696    0.110910 Biso 1.000000  O     
 O20    1.0    0.733271    0.226575    0.110910 Biso 1.000000  O     
 O21    1.0    0.323304    0.926729    0.110910 Biso 1.000000  O     
 O22    1.0    0.226575    0.323304    0.610910 Biso 1.000000  O     
 O23    1.0    0.926729    0.433425    0.610910 Biso 1.000000  O     
 O24    1.0    0.336696    0.733271    0.610910 Biso 1.000000  O     
 O25    1.0    0.068401    0.005696    0.895355 Biso 1.000000  O     
 O26    1.0    0.767293    0.591599    0.895355 Biso 1.000000  O     
 O27    1.0    0.654304    0.892707    0.895355 Biso 1.000000  O     
 O28    1.0    0.591599    0.654304    0.395355 Biso 1.000000  O     
 O29    1.0    0.892707    0.068401    0.395355 Biso 1.000000  O     
 O30    1.0    0.005696    0.767293    0.395355 Biso 1.000000  O     
 O31    1.0    0.072540    0.899126    0.110137 Biso 1.000000  O     
 O32    1.0    0.656587    0.587460    0.110137 Biso 1.000000  O     
 O33    1.0    0.760874    0.003413    0.110137 Biso 1.000000  O     
 O34    1.0    0.587460    0.760874    0.610137 Biso 1.000000  O     
 O35    1.0    0.003413    0.072540    0.610137 Biso 1.000000  O     
 O36    1.0    0.899126    0.656587    0.610137 Biso 1.000000  O     
 C1     1.0    0.013404    0.200091    0.007089 Biso 1.000000  C     
 C2     1.0    0.016687    0.646596    0.007089 Biso 1.000000  C     
 C3     1.0    0.459909    0.643313    0.007089 Biso 1.000000  C     
 C4     1.0    0.646596    0.459909    0.507089 Biso 1.000000  C     
 C5     1.0    0.643313    0.013404    0.507089 Biso 1.000000  C     
 C6     1.0    0.200091    0.016687    0.507089 Biso 1.000000  C     
 C7     1.0    0.344983    0.305988    0.013369 Biso 1.000000  C     
 C8     1.0    0.791005    0.315017    0.013369 Biso 1.000000  C     
 C9     1.0    0.354012    0.868995    0.013369 Biso 1.000000  C     
 C10    1.0    0.315017    0.354012    0.513369 Biso 1.000000  C     
 C11    1.0    0.868995    0.344983    0.513369 Biso 1.000000  C     
 C12    1.0    0.305988    0.791005    0.513369 Biso 1.000000  C     
 C13    1.0    0.125441    0.975707    0.995275 Biso 1.000000  C     
 C14    1.0    0.680266    0.534559    0.995275 Biso 1.000000  C     
 C15    1.0    0.684293    0.979734    0.995275 Biso 1.000000  C     
 C16    1.0    0.534559    0.684293    0.495275 Biso 1.000000  C     
 C17    1.0    0.979734    0.125441    0.495275 Biso 1.000000  C     
 C18    1.0    0.975707    0.680266    0.495275 Biso 1.000000  C     
 H1     1.0    0.968003    0.098992    0.012599 Biso 1.000000  H     
 H2     1.0    0.960990    0.691997    0.012599 Biso 1.000000  H     
 H3     1.0    0.561008    0.699010    0.012599 Biso 1.000000  H     
 H4     1.0    0.691997    0.561008    0.512599 Biso 1.000000  H     
 H5     1.0    0.699010    0.968003    0.512599 Biso 1.000000  H     
 H6     1.0    0.098992    0.960990    0.512599 Biso 1.000000  H     
 H7     1.0    0.285780    0.346405    0.028266 Biso 1.000000  H     
 H8     1.0    0.890625    0.374220    0.028266 Biso 1.000000  H     
 H9     1.0    0.313595    0.769375    0.028266 Biso 1.000000  H     
 H10    1.0    0.374220    0.313595    0.528266 Biso 1.000000  H     
 H11    1.0    0.769375    0.285780    0.528266 Biso 1.000000  H     
 H12    1.0    0.346405    0.890625    0.528266 Biso 1.000000  H     
 H13    1.0    0.225641    0.017218    0.984131 Biso 1.000000  H     
 H14    1.0    0.621578    0.434359    0.984131 Biso 1.000000  H     
 H15    1.0    0.642782    0.038422    0.984131 Biso 1.000000  H     
 H16    1.0    0.434359    0.642782    0.484131 Biso 1.000000  H     
 H17    1.0    0.038422    0.225641    0.484131 Biso 1.000000  H     
 H18    1.0    0.017218    0.621578    0.484131 Biso 1.000000  H     
 H19    1.0    0.135208    0.404675    0.821118 Biso 1.000000  H     
 H20    1.0    0.118501    0.530211    0.864392 Biso 1.000000  H     
 H21    1.0    0.259538    0.552064    0.803470 Biso 1.000000  H     
 H22    1.0    0.540307    0.253303    0.338247 Biso 1.000000  H     
 H23    1.0    0.557014    0.127767    0.294973 Biso 1.000000  H     
 H24    1.0    0.415977    0.105914    0.355895 Biso 1.000000  H     
 H25    1.0    0.139036    0.499862    0.674312 Biso 1.000000  H     
 H26    1.0    0.472436    0.166462    0.174312 Biso 1.000000  H     
 H27    1.0    0.451045    0.196094    0.864829 Biso 1.000000  H     
 H28    1.0    0.592903    0.219573    0.803947 Biso 1.000000  H     
 H29    1.0    0.469342    0.071369    0.821108 Biso 1.000000  H     
 H30    1.0    0.224465    0.461920    0.295048 Biso 1.000000  H     
 H31    1.0    0.082606    0.438440    0.355931 Biso 1.000000  H     
 H32    1.0    0.206168    0.586644    0.338770 Biso 1.000000  H     
 H33    1.0    0.472390    0.166414    0.674554 Biso 1.000000  H     
 H34    1.0    0.138990    0.499814    0.174554 Biso 1.000000  H     
 H35    1.0    0.905543    0.848451    0.143088 Biso 1.000000  H     
 H36    1.0    0.753311    0.744111    0.186162 Biso 1.000000  H     
 H37    1.0    0.807901    0.900440    0.204141 Biso 1.000000  H     
 H38    1.0    0.738960    0.813552    0.712506 Biso 1.000000  H     
 H39    1.0    0.891192    0.917891    0.669433 Biso 1.000000  H     
 H40    1.0    0.836602    0.761562    0.651453 Biso 1.000000  H     
 H41    1.0    0.854286    0.826862    0.333132 Biso 1.000000  H     
 H42    1.0    0.854286    0.826862    0.833132 Biso 1.000000  H     
 N1     1.0    0.163301    0.496700    0.792047 Biso 1.000000  N     
 N2     1.0    0.496701    0.163300    0.292047 Biso 1.000000  N     
 N3     1.0    0.496701    0.163300    0.792363 Biso 1.000000  N     
 N4     1.0    0.163301    0.496700    0.292363 Biso 1.000000  N     
 N5     1.0    0.829999    0.830000    0.215365 Biso 1.000000  N     
 N6     1.0    0.829999    0.830000    0.715365 Biso 1.000000  N     
