_cell_length_a                         12.531950
_cell_length_b                         12.531950
_cell_length_c                         8.252197
_cell_angle_alpha                      90.000000
_cell_angle_beta                       90.000000
_cell_angle_gamma                      120.000008
_space_group_IT_number                 1
 loop_
 _space_group_symop_operation_xyz 
 'x, y, z' 
 loop_ 
 _atom_site_label 
 _atom_site_occupancy 
 _atom_site_fract_x 
 _atom_site_fract_y
 _atom_site_fract_z
 _atom_site_adp_type
 _atom_site_U_iso_or_equiv
 _atom_site_type_symbol
 Ni1    1.0    0.163947    0.162714    0.755639 Biso 1.000000  Ni    
 Ni2    1.0    0.828768    0.496053    0.755639 Biso 1.000000  Ni    
 Ni3    1.0    0.497286    0.831232    0.755639 Biso 1.000000  Ni    
 Ni4    1.0    0.496053    0.497286    0.255639 Biso 1.000000  Ni    
 Ni5    1.0    0.831232    0.163947    0.255639 Biso 1.000000  Ni    
 Ni6    1.0    0.162714    0.828768    0.255639 Biso 1.000000  Ni    
 O1     1.0    0.100304    0.256073    0.899856 Biso 1.000000  O     
 O2     1.0    0.985769    0.559696    0.899856 Biso 1.000000  O     
 O3     1.0    0.403927    0.674231    0.899856 Biso 1.000000  O     
 O4     1.0    0.559696    0.403927    0.399856 Biso 1.000000  O     
 O5     1.0    0.674231    0.100304    0.399856 Biso 1.000000  O     
 O6     1.0    0.256073    0.985769    0.399856 Biso 1.000000  O     
 O7     1.0    0.989103    0.255201    0.112186 Biso 1.000000  O     
 O8     1.0    0.096097    0.670897    0.112186 Biso 1.000000  O     
 O9     1.0    0.404799    0.563903    0.112186 Biso 1.000000  O     
 O10    1.0    0.670897    0.404799    0.612186 Biso 1.000000  O     
 O11    1.0    0.563903    0.989103    0.612186 Biso 1.000000  O     
 O12    1.0    0.255201    0.096097    0.612186 Biso 1.000000  O     
 O13    1.0    0.322734    0.227566    0.898565 Biso 1.000000  O     
 O14    1.0    0.734832    0.337266    0.898565 Biso 1.000000  O     
 O15    1.0    0.432434    0.925168    0.898565 Biso 1.000000  O     
 O16    1.0    0.337266    0.432434    0.398565 Biso 1.000000  O     
 O17    1.0    0.925168    0.322734    0.398565 Biso 1.000000  O     
 O18    1.0    0.227566    0.734832    0.398565 Biso 1.000000  O     
 O19    1.0    0.430451    0.338407    0.112483 Biso 1.000000  O     
 O20    1.0    0.737956    0.229549    0.112483 Biso 1.000000  O     
 O21    1.0    0.321593    0.922044    0.112483 Biso 1.000000  O     
 O22    1.0    0.229549    0.321593    0.612483 Biso 1.000000  O     
 O23    1.0    0.922044    0.430451    0.612483 Biso 1.000000  O     
 O24    1.0    0.338407    0.737956    0.612483 Biso 1.000000  O     
 O25    1.0    0.071505    0.003984    0.898736 Biso 1.000000  O     
 O26    1.0    0.762479    0.588495    0.898736 Biso 1.000000  O     
 O27    1.0    0.656016    0.897521    0.898736 Biso 1.000000  O     
 O28    1.0    0.588495    0.656016    0.398736 Biso 1.000000  O     
 O29    1.0    0.897521    0.071505    0.398736 Biso 1.000000  O     
 O30    1.0    0.003984    0.762479    0.398736 Biso 1.000000  O     
 O31    1.0    0.069436    0.894312    0.113518 Biso 1.000000  O     
 O32    1.0    0.654875    0.590564    0.113518 Biso 1.000000  O     
 O33    1.0    0.765688    0.005125    0.113518 Biso 1.000000  O     
 O34    1.0    0.590564    0.765688    0.613518 Biso 1.000000  O     
 O35    1.0    0.005125    0.069436    0.613518 Biso 1.000000  O     
 O36    1.0    0.894312    0.654875    0.613518 Biso 1.000000  O     
 C1     1.0    0.015866    0.200091    0.003956 Biso 1.000000  C     
 C2     1.0    0.014225    0.644134    0.003956 Biso 1.000000  C     
 C3     1.0    0.459909    0.645775    0.003956 Biso 1.000000  C     
 C4     1.0    0.644134    0.459909    0.503956 Biso 1.000000  C     
 C5     1.0    0.645775    0.015866    0.503956 Biso 1.000000  C     
 C6     1.0    0.200091    0.014225    0.503956 Biso 1.000000  C     
 C7     1.0    0.351755    0.312760    0.000816 Biso 1.000000  C     
 C8     1.0    0.791005    0.308246    0.000816 Biso 1.000000  C     
 C9     1.0    0.347241    0.868995    0.000816 Biso 1.000000  C     
 C10    1.0    0.308246    0.347241    0.500816 Biso 1.000000  C     
 C11    1.0    0.868995    0.351755    0.500816 Biso 1.000000  C     
 C12    1.0    0.312760    0.791005    0.500816 Biso 1.000000  C     
 C13    1.0    0.125441    0.978727    1.009862 Biso 1.000000  C     
 C14    1.0    0.683286    0.534559    1.009862 Biso 1.000000  C     
 C15    1.0    0.681273    0.976714    1.009862 Biso 1.000000  C     
 C16    1.0    0.534559    0.681273    0.509862 Biso 1.000000  C     
 C17    1.0    0.976714    0.125441    0.509862 Biso 1.000000  C     
 C18    1.0    0.978727    0.683286    0.509862 Biso 1.000000  C     
 H1     1.0    0.962743    0.098992    0.001200 Biso 1.000000  H     
 H2     1.0    0.966250    0.697257    0.001200 Biso 1.000000  H     
 H3     1.0    0.561008    0.693750    0.001200 Biso 1.000000  H     
 H4     1.0    0.697257    0.561008    0.501200 Biso 1.000000  H     
 H5     1.0    0.693750    0.962743    0.501200 Biso 1.000000  H     
 H6     1.0    0.098992    0.966250    0.501200 Biso 1.000000  H     
 H7     1.0    0.306641    0.367266   -0.006633 Biso 1.000000  H     
 H8     1.0    0.890625    0.353359   -0.006633 Biso 1.000000  H     
 H9     1.0    0.292734    0.769375   -0.006633 Biso 1.000000  H     
 H10    1.0    0.353359    0.292734    0.493367 Biso 1.000000  H     
 H11    1.0    0.769375    0.306641    0.493367 Biso 1.000000  H     
 H12    1.0    0.367266    0.890625    0.493367 Biso 1.000000  H     
 H13    1.0    0.225641    0.033121    1.015434 Biso 1.000000  H     
 H14    1.0    0.637481    0.434359    1.015434 Biso 1.000000  H     
 H15    1.0    0.626879    0.022519    1.015434 Biso 1.000000  H     
 H16    1.0    0.434359    0.626879    0.515434 Biso 1.000000  H     
 H17    1.0    0.022519    0.225641    0.515434 Biso 1.000000  H     
 H18    1.0    0.033121    0.637481    0.515434 Biso 1.000000  H     
 H19    1.0    0.081921    0.422359    0.690556 Biso 1.000000  H     
 H20    1.0    0.211250    0.463991    0.803849 Biso 1.000000  H     
 H21    1.0    0.219463    0.552988    0.644353 Biso 1.000000  H     
 H22    1.0    0.593319    0.203803    0.235402 Biso 1.000000  H     
 H23    1.0    0.463990    0.162172    0.122109 Biso 1.000000  H     
 H24    1.0    0.455777    0.073174    0.281605 Biso 1.000000  H     
 H25    1.0    0.139466    0.549620    0.809003 Biso 1.000000  H     
 H26    1.0    0.472865    0.216220    0.309003 Biso 1.000000  H     
 H27    1.0    0.544884    0.130839    0.804676 Biso 1.000000  H     
 H28    1.0    0.553248    0.220315    0.645285 Biso 1.000000  H     
 H29    1.0    0.415768    0.088741    0.690212 Biso 1.000000  H     
 H30    1.0    0.130900    0.495820    0.121987 Biso 1.000000  H     
 H31    1.0    0.122535    0.406343    0.281380 Biso 1.000000  H     
 H32    1.0    0.260014    0.537918    0.236451 Biso 1.000000  H     
 H33    1.0    0.471961    0.215558    0.809364 Biso 1.000000  H     
 H34    1.0    0.138561    0.548958    0.309365 Biso 1.000000  H     
 H35    1.0    0.831310    0.901021    0.207167 Biso 1.000000  H     
 H36    1.0    0.740998    0.771921    0.319934 Biso 1.000000  H     
 H37    1.0    0.894446    0.867392    0.367006 Biso 1.000000  H     
 H38    1.0    0.813193    0.792535    0.888905 Biso 1.000000  H     
 H39    1.0    0.903506    0.921635    0.776138 Biso 1.000000  H     
 H40    1.0    0.750058    0.826164    0.729066 Biso 1.000000  H     
 H41    1.0    0.854286    0.777412    0.202034 Biso 1.000000  H     
 H42    1.0    0.854286    0.777412    0.702034 Biso 1.000000  H     
 N1     1.0    0.163301    0.496698    0.736240 Biso 1.000000  N     
 N2     1.0    0.496701    0.163299    0.236239 Biso 1.000000  N     
 N3     1.0    0.496701    0.163298    0.736555 Biso 1.000000  N     
 N4     1.0    0.163301    0.496698    0.236555 Biso 1.000000  N     
 N5     1.0    0.829999    0.830002    0.274818 Biso 1.000000  N     
 N6     1.0    0.829999    0.830002    0.774818 Biso 1.000000  N     
