_cell_length_a                         12.531950
_cell_length_b                         12.531950
_cell_length_c                         8.252197
_cell_angle_alpha                      90.000000
_cell_angle_beta                       90.000000
_cell_angle_gamma                      120.000008
_space_group_IT_number                 1
 loop_
 _space_group_symop_operation_xyz 
 'x, y, z' 
 loop_ 
 _atom_site_label 
 _atom_site_occupancy 
 _atom_site_fract_x 
 _atom_site_fract_y
 _atom_site_fract_z
 _atom_site_adp_type
 _atom_site_U_iso_or_equiv
 _atom_site_type_symbol
 Ni1    1.0    0.163022    0.163639    0.754681 Biso 1.000000  Ni    
 Ni2    1.0    0.830616    0.496978    0.754681 Biso 1.000000  Ni    
 Ni3    1.0    0.496361    0.829384    0.754681 Biso 1.000000  Ni    
 Ni4    1.0    0.496978    0.496361    0.254681 Biso 1.000000  Ni    
 Ni5    1.0    0.829384    0.163022    0.254681 Biso 1.000000  Ni    
 Ni6    1.0    0.163639    0.830616    0.254681 Biso 1.000000  Ni    
 O1     1.0    0.097149    0.255419    0.898324 Biso 1.000000  O     
 O2     1.0    0.988270    0.562851    0.898324 Biso 1.000000  O     
 O3     1.0    0.404581    0.671730    0.898324 Biso 1.000000  O     
 O4     1.0    0.562851    0.404581    0.398324 Biso 1.000000  O     
 O5     1.0    0.671730    0.097149    0.398324 Biso 1.000000  O     
 O6     1.0    0.255419    0.988270    0.398324 Biso 1.000000  O     
 O7     1.0    0.986602    0.255855    0.110654 Biso 1.000000  O     
 O8     1.0    0.099252    0.673398    0.110654 Biso 1.000000  O     
 O9     1.0    0.404145    0.560748    0.110654 Biso 1.000000  O     
 O10    1.0    0.673398    0.404145    0.610654 Biso 1.000000  O     
 O11    1.0    0.560748    0.986602    0.610654 Biso 1.000000  O     
 O12    1.0    0.255855    0.099252    0.610654 Biso 1.000000  O     
 O13    1.0    0.321878    0.229053    0.897779 Biso 1.000000  O     
 O14    1.0    0.737175    0.338122    0.897779 Biso 1.000000  O     
 O15    1.0    0.430947    0.922825    0.897779 Biso 1.000000  O     
 O16    1.0    0.338122    0.430947    0.397779 Biso 1.000000  O     
 O17    1.0    0.922825    0.321878    0.397779 Biso 1.000000  O     
 O18    1.0    0.229053    0.737175    0.397779 Biso 1.000000  O     
 O19    1.0    0.431938    0.337551    0.111697 Biso 1.000000  O     
 O20    1.0    0.735613    0.228062    0.111697 Biso 1.000000  O     
 O21    1.0    0.322449    0.924387    0.111697 Biso 1.000000  O     
 O22    1.0    0.228062    0.322449    0.611697 Biso 1.000000  O     
 O23    1.0    0.924387    0.431938    0.611697 Biso 1.000000  O     
 O24    1.0    0.337551    0.735613    0.611697 Biso 1.000000  O     
 O25    1.0    0.069953    0.004840    0.897045 Biso 1.000000  O     
 O26    1.0    0.764886    0.590047    0.897045 Biso 1.000000  O     
 O27    1.0    0.655160    0.895114    0.897045 Biso 1.000000  O     
 O28    1.0    0.590047    0.655160    0.397045 Biso 1.000000  O     
 O29    1.0    0.895114    0.069953    0.397045 Biso 1.000000  O     
 O30    1.0    0.004840    0.764886    0.397045 Biso 1.000000  O     
 O31    1.0    0.070988    0.896719    0.111827 Biso 1.000000  O     
 O32    1.0    0.655731    0.589012    0.111827 Biso 1.000000  O     
 O33    1.0    0.763281    0.004269    0.111827 Biso 1.000000  O     
 O34    1.0    0.589012    0.763281    0.611827 Biso 1.000000  O     
 O35    1.0    0.004269    0.070988    0.611827 Biso 1.000000  O     
 O36    1.0    0.896719    0.655731    0.611827 Biso 1.000000  O     
 C1     1.0    0.014635    0.200091    0.005522 Biso 1.000000  C     
 C2     1.0    0.015456    0.645365    0.005522 Biso 1.000000  C     
 C3     1.0    0.459909    0.644544    0.005522 Biso 1.000000  C     
 C4     1.0    0.645365    0.459909    0.505522 Biso 1.000000  C     
 C5     1.0    0.644544    0.014635    0.505522 Biso 1.000000  C     
 C6     1.0    0.200091    0.015456    0.505522 Biso 1.000000  C     
 C7     1.0    0.348369    0.309374    0.007092 Biso 1.000000  C     
 C8     1.0    0.791005    0.311631    0.007092 Biso 1.000000  C     
 C9     1.0    0.350626    0.868995    0.007092 Biso 1.000000  C     
 C10    1.0    0.311631    0.350626    0.507092 Biso 1.000000  C     
 C11    1.0    0.868995    0.348369    0.507092 Biso 1.000000  C     
 C12    1.0    0.309374    0.791005    0.507092 Biso 1.000000  C     
 C13    1.0    0.125441    0.977217    1.002569 Biso 1.000000  C     
 C14    1.0    0.681776    0.534559    1.002569 Biso 1.000000  C     
 C15    1.0    0.682783    0.978224    1.002569 Biso 1.000000  C     
 C16    1.0    0.534559    0.682783    0.502569 Biso 1.000000  C     
 C17    1.0    0.978224    0.125441    0.502569 Biso 1.000000  C     
 C18    1.0    0.977217    0.681776    0.502569 Biso 1.000000  C     
 H1     1.0    0.965373    0.098992    0.006900 Biso 1.000000  H     
 H2     1.0    0.963620    0.694627    0.006900 Biso 1.000000  H     
 H3     1.0    0.561008    0.696380    0.006900 Biso 1.000000  H     
 H4     1.0    0.694627    0.561008    0.506900 Biso 1.000000  H     
 H5     1.0    0.696380    0.965373    0.506900 Biso 1.000000  H     
 H6     1.0    0.098992    0.963620    0.506900 Biso 1.000000  H     
 H7     1.0    0.296211    0.356836    0.010817 Biso 1.000000  H     
 H8     1.0    0.890625    0.363789    0.010817 Biso 1.000000  H     
 H9     1.0    0.303164    0.769375    0.010817 Biso 1.000000  H     
 H10    1.0    0.363789    0.303164    0.510817 Biso 1.000000  H     
 H11    1.0    0.769375    0.296211    0.510817 Biso 1.000000  H     
 H12    1.0    0.356836    0.890625    0.510817 Biso 1.000000  H     
 H13    1.0    0.225641    0.025169    0.999783 Biso 1.000000  H     
 H14    1.0    0.629529    0.434359    0.999783 Biso 1.000000  H     
 H15    1.0    0.634831    0.030471    0.999783 Biso 1.000000  H     
 H16    1.0    0.434359    0.634831    0.499783 Biso 1.000000  H     
 H17    1.0    0.030471    0.225641    0.499783 Biso 1.000000  H     
 H18    1.0    0.025169    0.629529    0.499783 Biso 1.000000  H     
 H19    1.0    0.112058    0.400359    0.750013 Biso 1.000000  H     
 H20    1.0    0.185598    0.519323    0.883197 Biso 1.000000  H     
 H21    1.0    0.244022    0.533997    0.695698 Biso 1.000000  H     
 H22    1.0    0.582494    0.235436    0.302732 Biso 1.000000  H     
 H23    1.0    0.508954    0.116472    0.169548 Biso 1.000000  H     
 H24    1.0    0.450529    0.101798    0.357047 Biso 1.000000  H     
 H25    1.0    0.109264    0.534554    0.725889 Biso 1.000000  H     
 H26    1.0    0.442664    0.201154    0.225889 Biso 1.000000  H     
 H27    1.0    0.518273    0.185494    0.884051 Biso 1.000000  H     
 H28    1.0    0.577897    0.201833    0.696674 Biso 1.000000  H     
 H29    1.0    0.446209    0.066985    0.749490 Biso 1.000000  H     
 H30    1.0    0.176548    0.450706    0.169287 Biso 1.000000  H     
 H31    1.0    0.116924    0.434367    0.356664 Biso 1.000000  H     
 H32    1.0    0.248611    0.569214    0.303847 Biso 1.000000  H     
 H33    1.0    0.442122    0.200604    0.726181 Biso 1.000000  H     
 H34    1.0    0.108722    0.534004    0.226181 Biso 1.000000  H     
 H35    1.0    0.850001    0.854989    0.126061 Biso 1.000000  H     
 H36    1.0    0.736418    0.762904    0.258627 Biso 1.000000  H     
 H37    1.0    0.851604    0.908073    0.313963 Biso 1.000000  H     
 H38    1.0    0.775348    0.828989    0.839708 Biso 1.000000  H     
 H39    1.0    0.888931    0.921074    0.707142 Biso 1.000000  H     
 H40    1.0    0.773745    0.775905    0.651806 Biso 1.000000  H     
 H41    1.0    0.884305    0.792422    0.283356 Biso 1.000000  H     
 H42    1.0    0.884305    0.792422    0.783356 Biso 1.000000  H     
 N1     1.0    0.163302    0.496699    0.764144 Biso 1.000000  N     
 N2     1.0    0.496701    0.163299    0.264143 Biso 1.000000  N     
 N3     1.0    0.496702    0.163299    0.764459 Biso 1.000000  N     
 N4     1.0    0.163302    0.496699    0.264459 Biso 1.000000  N     
 N5     1.0    0.829998    0.830001    0.245091 Biso 1.000000  N     
 N6     1.0    0.829998    0.830001    0.745091 Biso 1.000000  N     
