_cell_length_a                         12.531950
_cell_length_b                         12.531950
_cell_length_c                         8.252197
_cell_angle_alpha                      90.000000
_cell_angle_beta                       90.000000
_cell_angle_gamma                      120.000008
_space_group_IT_number                 1
 loop_
 _space_group_symop_operation_xyz 
 'x, y, z' 
 loop_ 
 _atom_site_label 
 _atom_site_occupancy 
 _atom_site_fract_x 
 _atom_site_fract_y
 _atom_site_fract_z
 _atom_site_adp_type
 _atom_site_U_iso_or_equiv
 _atom_site_type_symbol
 Ni1    1.0    0.162714    0.163947    0.754361 Biso 1.000000  Ni    
 Ni2    1.0    0.831232    0.497286    0.754361 Biso 1.000000  Ni    
 Ni3    1.0    0.496053    0.828768    0.754361 Biso 1.000000  Ni    
 Ni4    1.0    0.497286    0.496053    0.254361 Biso 1.000000  Ni    
 Ni5    1.0    0.828768    0.162714    0.254361 Biso 1.000000  Ni    
 Ni6    1.0    0.163947    0.831232    0.254361 Biso 1.000000  Ni    
 O1     1.0    0.096097    0.255201    0.897814 Biso 1.000000  O     
 O2     1.0    0.989103    0.563903    0.897814 Biso 1.000000  O     
 O3     1.0    0.404799    0.670897    0.897814 Biso 1.000000  O     
 O4     1.0    0.563903    0.404799    0.397814 Biso 1.000000  O     
 O5     1.0    0.670897    0.096097    0.397814 Biso 1.000000  O     
 O6     1.0    0.255201    0.989103    0.397814 Biso 1.000000  O     
 O7     1.0    0.985769    0.256073    0.110144 Biso 1.000000  O     
 O8     1.0    0.100304    0.674231    0.110144 Biso 1.000000  O     
 O9     1.0    0.403927    0.559696    0.110144 Biso 1.000000  O     
 O10    1.0    0.674231    0.403927    0.610144 Biso 1.000000  O     
 O11    1.0    0.559696    0.985769    0.610144 Biso 1.000000  O     
 O12    1.0    0.256073    0.100304    0.610144 Biso 1.000000  O     
 O13    1.0    0.321593    0.229549    0.897517 Biso 1.000000  O     
 O14    1.0    0.737956    0.338407    0.897517 Biso 1.000000  O     
 O15    1.0    0.430451    0.922044    0.897517 Biso 1.000000  O     
 O16    1.0    0.338407    0.430451    0.397517 Biso 1.000000  O     
 O17    1.0    0.922044    0.321593    0.397517 Biso 1.000000  O     
 O18    1.0    0.229549    0.737956    0.397517 Biso 1.000000  O     
 O19    1.0    0.432434    0.337266    0.111435 Biso 1.000000  O     
 O20    1.0    0.734832    0.227566    0.111435 Biso 1.000000  O     
 O21    1.0    0.322734    0.925168    0.111435 Biso 1.000000  O     
 O22    1.0    0.227566    0.322734    0.611435 Biso 1.000000  O     
 O23    1.0    0.925168    0.432434    0.611435 Biso 1.000000  O     
 O24    1.0    0.337266    0.734832    0.611435 Biso 1.000000  O     
 O25    1.0    0.069436    0.005125    0.896482 Biso 1.000000  O     
 O26    1.0    0.765688    0.590564    0.896482 Biso 1.000000  O     
 O27    1.0    0.654875    0.894312    0.896482 Biso 1.000000  O     
 O28    1.0    0.590564    0.654875    0.396482 Biso 1.000000  O     
 O29    1.0    0.894312    0.069436    0.396482 Biso 1.000000  O     
 O30    1.0    0.005125    0.765688    0.396482 Biso 1.000000  O     
 O31    1.0    0.071505    0.897521    0.111264 Biso 1.000000  O     
 O32    1.0    0.656016    0.588495    0.111264 Biso 1.000000  O     
 O33    1.0    0.762479    0.003984    0.111264 Biso 1.000000  O     
 O34    1.0    0.588495    0.762479    0.611264 Biso 1.000000  O     
 O35    1.0    0.003984    0.071505    0.611264 Biso 1.000000  O     
 O36    1.0    0.897521    0.656016    0.611264 Biso 1.000000  O     
 C1     1.0    0.014225    0.200091    0.006044 Biso 1.000000  C     
 C2     1.0    0.015866    0.645775    0.006044 Biso 1.000000  C     
 C3     1.0    0.459909    0.644134    0.006044 Biso 1.000000  C     
 C4     1.0    0.645775    0.459909    0.506044 Biso 1.000000  C     
 C5     1.0    0.644134    0.014225    0.506044 Biso 1.000000  C     
 C6     1.0    0.200091    0.015866    0.506044 Biso 1.000000  C     
 C7     1.0    0.347241    0.308246    0.009184 Biso 1.000000  C     
 C8     1.0    0.791005    0.312760    0.009184 Biso 1.000000  C     
 C9     1.0    0.351755    0.868995    0.009184 Biso 1.000000  C     
 C10    1.0    0.312760    0.351755    0.509184 Biso 1.000000  C     
 C11    1.0    0.868995    0.347241    0.509184 Biso 1.000000  C     
 C12    1.0    0.308246    0.791005    0.509184 Biso 1.000000  C     
 C13    1.0    0.125441    0.976714    1.000138 Biso 1.000000  C     
 C14    1.0    0.681273    0.534559    1.000138 Biso 1.000000  C     
 C15    1.0    0.683286    0.978727    1.000138 Biso 1.000000  C     
 C16    1.0    0.534559    0.683286    0.500138 Biso 1.000000  C     
 C17    1.0    0.978727    0.125441    0.500138 Biso 1.000000  C     
 C18    1.0    0.976714    0.681273    0.500138 Biso 1.000000  C     
 H1     1.0    0.966250    0.098992    0.008800 Biso 1.000000  H     
 H2     1.0    0.962743    0.693750    0.008800 Biso 1.000000  H     
 H3     1.0    0.561008    0.697257    0.008800 Biso 1.000000  H     
 H4     1.0    0.693750    0.561008    0.508800 Biso 1.000000  H     
 H5     1.0    0.697257    0.966250    0.508800 Biso 1.000000  H     
 H6     1.0    0.098992    0.962743    0.508800 Biso 1.000000  H     
 H7     1.0    0.292734    0.353359    0.016633 Biso 1.000000  H     
 H8     1.0    0.890625    0.367266    0.016633 Biso 1.000000  H     
 H9     1.0    0.306641    0.769375    0.016633 Biso 1.000000  H     
 H10    1.0    0.367266    0.306641    0.516633 Biso 1.000000  H     
 H11    1.0    0.769375    0.292734    0.516633 Biso 1.000000  H     
 H12    1.0    0.353359    0.890625    0.516633 Biso 1.000000  H     
 H13    1.0    0.225641    0.022519    0.994566 Biso 1.000000  H     
 H14    1.0    0.626879    0.434359    0.994566 Biso 1.000000  H     
 H15    1.0    0.637481    0.033121    0.994566 Biso 1.000000  H     
 H16    1.0    0.434359    0.637481    0.494566 Biso 1.000000  H     
 H17    1.0    0.033121    0.225641    0.494566 Biso 1.000000  H     
 H18    1.0    0.022519    0.626879    0.494566 Biso 1.000000  H     
 H19    1.0    0.122050    0.400007    0.774282 Biso 1.000000  H     
 H20    1.0    0.164744    0.529558    0.887575 Biso 1.000000  H     
 H21    1.0    0.253382    0.536938    0.728080 Biso 1.000000  H     
 H22    1.0    0.571471    0.244347    0.319128 Biso 1.000000  H     
 H23    1.0    0.528777    0.114795    0.205835 Biso 1.000000  H     
 H24    1.0    0.440139    0.107415    0.365331 Biso 1.000000  H     
 H25    1.0    0.110876    0.521170    0.700681 Biso 1.000000  H     
 H26    1.0    0.444276    0.187770    0.200681 Biso 1.000000  H     
 H27    1.0    0.497267    0.195549    0.888329 Biso 1.000000  H     
 H28    1.0    0.587096    0.204750    0.728937 Biso 1.000000  H     
 H29    1.0    0.456229    0.066659    0.773864 Biso 1.000000  H     
 H30    1.0    0.196391    0.449073    0.205640 Biso 1.000000  H     
 H31    1.0    0.106562    0.439872    0.365033 Biso 1.000000  H     
 H32    1.0    0.237428    0.577962    0.320103 Biso 1.000000  H     
 H33    1.0    0.443945    0.187404    0.700951 Biso 1.000000  H     
 H34    1.0    0.110545    0.520804    0.200951 Biso 1.000000  H     
 H35    1.0    0.867465    0.846807    0.121095 Biso 1.000000  H     
 H36    1.0    0.738366    0.756494    0.233862 Biso 1.000000  H     
 H37    1.0    0.833836    0.909943    0.280934 Biso 1.000000  H     
 H38    1.0    0.758980    0.828690    0.802833 Biso 1.000000  H     
 H39    1.0    0.888079    0.919002    0.690066 Biso 1.000000  H     
 H40    1.0    0.792608    0.765554    0.642994 Biso 1.000000  H     
 H41    1.0    0.882588    0.805714    0.307966 Biso 1.000000  H     
 H42    1.0    0.882588    0.805714    0.807966 Biso 1.000000  H     
 N1     1.0    0.163302    0.496699    0.773445 Biso 1.000000  N     
 N2     1.0    0.496701    0.163299    0.273445 Biso 1.000000  N     
 N3     1.0    0.496702    0.163299    0.773761 Biso 1.000000  N     
 N4     1.0    0.163302    0.496699    0.273761 Biso 1.000000  N     
 N5     1.0    0.829998    0.830001    0.235182 Biso 1.000000  N     
 N6     1.0    0.829998    0.830001    0.735182 Biso 1.000000  N     
