_cell_length_a                         12.531950
_cell_length_b                         12.531950
_cell_length_c                         8.252197
_cell_angle_alpha                      90.000000
_cell_angle_beta                       90.000000
_cell_angle_gamma                      120.000008
_space_group_IT_number                 1
 loop_
 _space_group_symop_operation_xyz 
 'x, y, z' 
 loop_ 
 _atom_site_label 
 _atom_site_occupancy 
 _atom_site_fract_x 
 _atom_site_fract_y
 _atom_site_fract_z
 _atom_site_adp_type
 _atom_site_U_iso_or_equiv
 _atom_site_type_symbol
 Ni1    1.0    0.164563    0.162098    0.756278 Biso 1.000000  Ni    
 Ni2    1.0    0.827535    0.495437    0.756278 Biso 1.000000  Ni    
 Ni3    1.0    0.497902    0.832465    0.756278 Biso 1.000000  Ni    
 Ni4    1.0    0.495437    0.497902    0.256278 Biso 1.000000  Ni    
 Ni5    1.0    0.832465    0.164563    0.256278 Biso 1.000000  Ni    
 Ni6    1.0    0.162098    0.827535    0.256278 Biso 1.000000  Ni    
 O1     1.0    0.102407    0.256509    0.900877 Biso 1.000000  O     
 O2     1.0    0.984102    0.557593    0.900877 Biso 1.000000  O     
 O3     1.0    0.403491    0.675898    0.900877 Biso 1.000000  O     
 O4     1.0    0.557593    0.403491    0.400877 Biso 1.000000  O     
 O5     1.0    0.675898    0.102407    0.400877 Biso 1.000000  O     
 O6     1.0    0.256509    0.984102    0.400877 Biso 1.000000  O     
 O7     1.0    0.990770    0.254765    0.113207 Biso 1.000000  O     
 O8     1.0    0.093994    0.669230    0.113207 Biso 1.000000  O     
 O9     1.0    0.405235    0.566006    0.113207 Biso 1.000000  O     
 O10    1.0    0.669230    0.405235    0.613207 Biso 1.000000  O     
 O11    1.0    0.566006    0.990770    0.613207 Biso 1.000000  O     
 O12    1.0    0.254765    0.093994    0.613207 Biso 1.000000  O     
 O13    1.0    0.323304    0.226575    0.899090 Biso 1.000000  O     
 O14    1.0    0.733271    0.336696    0.899090 Biso 1.000000  O     
 O15    1.0    0.433425    0.926729    0.899090 Biso 1.000000  O     
 O16    1.0    0.336696    0.433425    0.399090 Biso 1.000000  O     
 O17    1.0    0.926729    0.323304    0.399090 Biso 1.000000  O     
 O18    1.0    0.226575    0.733271    0.399090 Biso 1.000000  O     
 O19    1.0    0.429460    0.338977    0.113008 Biso 1.000000  O     
 O20    1.0    0.739517    0.230540    0.113008 Biso 1.000000  O     
 O21    1.0    0.321023    0.920483    0.113008 Biso 1.000000  O     
 O22    1.0    0.230540    0.321023    0.613008 Biso 1.000000  O     
 O23    1.0    0.920483    0.429460    0.613008 Biso 1.000000  O     
 O24    1.0    0.338977    0.739517    0.613008 Biso 1.000000  O     
 O25    1.0    0.072540    0.003413    0.899863 Biso 1.000000  O     
 O26    1.0    0.760874    0.587460    0.899863 Biso 1.000000  O     
 O27    1.0    0.656587    0.899126    0.899863 Biso 1.000000  O     
 O28    1.0    0.587460    0.656587    0.399863 Biso 1.000000  O     
 O29    1.0    0.899126    0.072540    0.399863 Biso 1.000000  O     
 O30    1.0    0.003413    0.760874    0.399863 Biso 1.000000  O     
 O31    1.0    0.068401    0.892707    0.114645 Biso 1.000000  O     
 O32    1.0    0.654304    0.591599    0.114645 Biso 1.000000  O     
 O33    1.0    0.767293    0.005696    0.114645 Biso 1.000000  O     
 O34    1.0    0.591599    0.767293    0.614645 Biso 1.000000  O     
 O35    1.0    0.005696    0.068401    0.614645 Biso 1.000000  O     
 O36    1.0    0.892707    0.654304    0.614645 Biso 1.000000  O     
 C1     1.0    0.016687    0.200091    0.002911 Biso 1.000000  C     
 C2     1.0    0.013404    0.643313    0.002911 Biso 1.000000  C     
 C3     1.0    0.459909    0.646596    0.002911 Biso 1.000000  C     
 C4     1.0    0.643313    0.459909    0.502911 Biso 1.000000  C     
 C5     1.0    0.646596    0.016687    0.502911 Biso 1.000000  C     
 C6     1.0    0.200091    0.013404    0.502911 Biso 1.000000  C     
 C7     1.0    0.354012    0.315017   -0.003369 Biso 1.000000  C     
 C8     1.0    0.791005    0.305988   -0.003369 Biso 1.000000  C     
 C9     1.0    0.344983    0.868995   -0.003369 Biso 1.000000  C     
 C10    1.0    0.305988    0.344983    0.496631 Biso 1.000000  C     
 C11    1.0    0.868995    0.354012    0.496631 Biso 1.000000  C     
 C12    1.0    0.315017    0.791005    0.496631 Biso 1.000000  C     
 C13    1.0    0.125441    0.979734    1.014725 Biso 1.000000  C     
 C14    1.0    0.684293    0.534559    1.014725 Biso 1.000000  C     
 C15    1.0    0.680266    0.975707    1.014725 Biso 1.000000  C     
 C16    1.0    0.534559    0.680266    0.514725 Biso 1.000000  C     
 C17    1.0    0.975707    0.125441    0.514725 Biso 1.000000  C     
 C18    1.0    0.979734    0.684293    0.514725 Biso 1.000000  C     
 H1     1.0    0.960990    0.098992   -0.002599 Biso 1.000000  H     
 H2     1.0    0.968003    0.699010   -0.002599 Biso 1.000000  H     
 H3     1.0    0.561008    0.691997   -0.002599 Biso 1.000000  H     
 H4     1.0    0.699010    0.561008    0.497401 Biso 1.000000  H     
 H5     1.0    0.691997    0.960990    0.497401 Biso 1.000000  H     
 H6     1.0    0.098992    0.968003    0.497401 Biso 1.000000  H     
 H7     1.0    0.313595    0.374220   -0.018266 Biso 1.000000  H     
 H8     1.0    0.890625    0.346405   -0.018266 Biso 1.000000  H     
 H9     1.0    0.285780    0.769375   -0.018266 Biso 1.000000  H     
 H10    1.0    0.346405    0.285780    0.481734 Biso 1.000000  H     
 H11    1.0    0.769375    0.313595    0.481734 Biso 1.000000  H     
 H12    1.0    0.374220    0.890625    0.481734 Biso 1.000000  H     
 H13    1.0    0.225641    0.038422    1.025869 Biso 1.000000  H     
 H14    1.0    0.642782    0.434359    1.025869 Biso 1.000000  H     
 H15    1.0    0.621578    0.017218    1.025869 Biso 1.000000  H     
 H16    1.0    0.434359    0.621578    0.525869 Biso 1.000000  H     
 H17    1.0    0.017218    0.225641    0.525869 Biso 1.000000  H     
 H18    1.0    0.038422    0.642782    0.525869 Biso 1.000000  H     
 H19    1.0    0.073314    0.453763    0.671437 Biso 1.000000  H     
 H20    1.0    0.198066    0.435743    0.714711 Biso 1.000000  H     
 H21    1.0    0.221194    0.577253    0.653789 Biso 1.000000  H     
 H22    1.0    0.588545    0.190626    0.188566 Biso 1.000000  H     
 H23    1.0    0.463794    0.208646    0.145292 Biso 1.000000  H     
 H24    1.0    0.440666    0.067137    0.206214 Biso 1.000000  H     
 H25    1.0    0.160392    0.521114    0.835372 Biso 1.000000  H     
 H26    1.0    0.493791    0.187714    0.335372 Biso 1.000000  H     
 H27    1.0    0.532249    0.102779    0.715268 Biso 1.000000  H     
 H28    1.0    0.554451    0.244166    0.654385 Biso 1.000000  H     
 H29    1.0    0.406738    0.119762    0.671546 Biso 1.000000  H     
 H30    1.0    0.129899    0.541808    0.145487 Biso 1.000000  H     
 H31    1.0    0.107697    0.400419    0.206369 Biso 1.000000  H     
 H32    1.0    0.255409    0.524825    0.189208 Biso 1.000000  H     
 H33    1.0    0.493333    0.187459    0.835761 Biso 1.000000  H     
 H34    1.0    0.159933    0.520859    0.335762 Biso 1.000000  H     
 H35    1.0    0.846448    0.921040    0.297494 Biso 1.000000  H     
 H36    1.0    0.742109    0.768808    0.340567 Biso 1.000000  H     
 H37    1.0    0.898438    0.823398    0.358547 Biso 1.000000  H     
 H38    1.0    0.811550    0.754456    0.866912 Biso 1.000000  H     
 H39    1.0    0.915888    0.906689    0.823838 Biso 1.000000  H     
 H40    1.0    0.759560    0.852099    0.805859 Biso 1.000000  H     
 H41    1.0    0.833138    0.805714    0.176868 Biso 1.000000  H     
 H42    1.0    0.833138    0.805714    0.676868 Biso 1.000000  H     
 N1     1.0    0.163300    0.496699    0.717638 Biso 1.000000  N     
 N2     1.0    0.496700    0.163299    0.217638 Biso 1.000000  N     
 N3     1.0    0.496700    0.163299    0.717953 Biso 1.000000  N     
 N4     1.0    0.163300    0.496699    0.217953 Biso 1.000000  N     
 N5     1.0    0.830000    0.830001    0.294635 Biso 1.000000  N     
 N6     1.0    0.830000    0.830001    0.794635 Biso 1.000000  N     
