_cell_length_a                         12.558309
_cell_length_b                         12.558312
_cell_length_c                         8.381599
_cell_angle_alpha                      89.999947
_cell_angle_beta                       90.000084
_cell_angle_gamma                      120.000061
_space_group_IT_number                 1
 loop_
 _space_group_symop_operation_xyz 
 'x, y, z' 
 loop_ 
 _atom_site_label 
 _atom_site_occupancy 
 _atom_site_fract_x 
 _atom_site_fract_y
 _atom_site_fract_z
 _atom_site_adp_type
 _atom_site_U_iso_or_equiv
 _atom_site_type_symbol
 Zn1    1.0    0.164209    0.162443    0.755772 Biso 1.000000  Zn    
 Zn2    1.0    0.162443    0.828234    0.255772 Biso 1.000000  Zn    
 Zn3    1.0    0.828234    0.495791    0.755772 Biso 1.000000  Zn    
 Zn4    1.0    0.495790    0.497557    0.255772 Biso 1.000000  Zn    
 Zn5    1.0    0.497557    0.831766    0.755772 Biso 1.000000  Zn    
 Zn6    1.0    0.831766    0.164209    0.255773 Biso 1.000000  Zn    
 O1     1.0    0.101706    0.259250    0.900662 Biso 1.000000  O     
 O2     1.0    0.259250    0.987544    0.400662 Biso 1.000000  O     
 O3     1.0    0.987544    0.558294    0.900662 Biso 1.000000  O     
 O4     1.0    0.558294    0.400750    0.400662 Biso 1.000000  O     
 O5     1.0    0.400750    0.672456    0.900662 Biso 1.000000  O     
 O6     1.0    0.672456    0.101706    0.400662 Biso 1.000000  O     
 O7     1.0    0.991237    0.257376    0.111294 Biso 1.000000  O     
 O8     1.0    0.257375    0.096139    0.611294 Biso 1.000000  O     
 O9     1.0    0.096138    0.668763    0.111294 Biso 1.000000  O     
 O10    1.0    0.668763    0.402624    0.611294 Biso 1.000000  O     
 O11    1.0    0.402624    0.563861    0.111294 Biso 1.000000  O     
 O12    1.0    0.563861    0.991237    0.611294 Biso 1.000000  O     
 O13    1.0    0.325282    0.226538    0.898941 Biso 1.000000  O     
 O14    1.0    0.226537    0.731256    0.398941 Biso 1.000000  O     
 O15    1.0    0.731256    0.334718    0.898941 Biso 1.000000  O     
 O16    1.0    0.334718    0.433462    0.398942 Biso 1.000000  O     
 O17    1.0    0.433462    0.928744    0.898942 Biso 1.000000  O     
 O18    1.0    0.928744    0.325282    0.398942 Biso 1.000000  O     
 O19    1.0    0.431342    0.336504    0.111172 Biso 1.000000  O     
 O20    1.0    0.336504    0.735162    0.611173 Biso 1.000000  O     
 O21    1.0    0.735162    0.228658    0.111173 Biso 1.000000  O     
 O22    1.0    0.228658    0.323495    0.611172 Biso 1.000000  O     
 O23    1.0    0.323495    0.924838    0.111172 Biso 1.000000  O     
 O24    1.0    0.924838    0.431342    0.611172 Biso 1.000000  O     
 O25    1.0    0.069049    0.001678    0.900284 Biso 1.000000  O     
 O26    1.0    0.001678    0.762629    0.400284 Biso 1.000000  O     
 O27    1.0    0.762629    0.590951    0.900284 Biso 1.000000  O     
 O28    1.0    0.590950    0.658322    0.400283 Biso 1.000000  O     
 O29    1.0    0.658322    0.897371    0.900284 Biso 1.000000  O     
 O30    1.0    0.897371    0.069048    0.400284 Biso 1.000000  O     
 O31    1.0    0.065922    0.893528    0.114189 Biso 1.000000  O     
 O32    1.0    0.893528    0.657606    0.614189 Biso 1.000000  O     
 O33    1.0    0.657605    0.594077    0.114189 Biso 1.000000  O     
 O34    1.0    0.594077    0.766472    0.614188 Biso 1.000000  O     
 O35    1.0    0.766471    0.002394    0.114189 Biso 1.000000  O     
 O36    1.0    0.002394    0.065923    0.614189 Biso 1.000000  O     
 C1     1.0    0.017382    0.203651    0.002691 Biso 1.000000  C     
 C2     1.0    0.203651    0.016270    0.502691 Biso 1.000000  C     
 C3     1.0    0.016269    0.642618    0.002691 Biso 1.000000  C     
 C4     1.0    0.642618    0.456349    0.502691 Biso 1.000000  C     
 C5     1.0    0.456348    0.643730    0.002691 Biso 1.000000  C     
 C6     1.0    0.643730    0.017382    0.502691 Biso 1.000000  C     
 C7     1.0    0.354687    0.311324   -0.000516 Biso 1.000000  C     
 C8     1.0    0.311324    0.786638    0.499483 Biso 1.000000  C     
 C9     1.0    0.786637    0.305313   -0.000517 Biso 1.000000  C     
 C10    1.0    0.305313    0.348676    0.499482 Biso 1.000000  C     
 C11    1.0    0.348676    0.873363   -0.000517 Biso 1.000000  C     
 C12    1.0    0.873363    0.354687    0.499483 Biso 1.000000  C     
 C13    1.0    0.121217    0.977375    1.012161 Biso 1.000000  C     
 C14    1.0    0.977375    0.686159    0.512161 Biso 1.000000  C     
 C15    1.0    0.686158    0.538783    1.012161 Biso 1.000000  C     
 C16    1.0    0.538782    0.682625    0.512161 Biso 1.000000  C     
 C17    1.0    0.682624    0.973841    1.012161 Biso 1.000000  C     
 C18    1.0    0.973842    0.121217    0.512162 Biso 1.000000  C     
 H1     1.0    0.963289    0.103279   -0.002214 Biso 1.000000  H     
 H2     1.0    0.103279    0.969990    0.497785 Biso 1.000000  H     
 H3     1.0    0.969990    0.696710   -0.002214 Biso 1.000000  H     
 H4     1.0    0.696710    0.556721    0.497786 Biso 1.000000  H     
 H5     1.0    0.556720    0.690010   -0.002215 Biso 1.000000  H     
 H6     1.0    0.690010    0.963289    0.497785 Biso 1.000000  H     
 H7     1.0    0.311300    0.366431   -0.009621 Biso 1.000000  H     
 H8     1.0    0.366430    0.885130    0.490379 Biso 1.000000  H     
 H9     1.0    0.885129    0.348699   -0.009622 Biso 1.000000  H     
 H10    1.0    0.348699    0.293569    0.490379 Biso 1.000000  H     
 H11    1.0    0.293569    0.774870   -0.009621 Biso 1.000000  H     
 H12    1.0    0.774870    0.311301    0.490378 Biso 1.000000  H     
 H13    1.0    0.220185    0.032647    1.019934 Biso 1.000000  H     
 H14    1.0    0.032647    0.642463    0.519935 Biso 1.000000  H     
 H15    1.0    0.642463    0.439814    1.019936 Biso 1.000000  H     
 H16    1.0    0.439814    0.627352    0.519934 Biso 1.000000  H     
 H17    1.0    0.627352    0.017538    1.019935 Biso 1.000000  H     
 H18    1.0    0.017538    0.220185    0.519935 Biso 1.000000  H     
 H19    1.0    0.081821    0.422534    0.691648 Biso 1.000000  H     
 H20    1.0    0.456258    0.074195    0.283437 Biso 1.000000  H     
 H21    1.0    0.211714    0.464980    0.804701 Biso 1.000000  H     
 H22    1.0    0.592732    0.204108    0.234176 Biso 1.000000  H     
 H23    1.0    0.218295    0.552446    0.642387 Biso 1.000000  H     
 H24    1.0    0.462839    0.161661    0.121123 Biso 1.000000  H     
 H25    1.0    0.474148    0.214931    0.307711 Biso 1.000000  H     
 H26    1.0    0.140814    0.548263    0.807711 Biso 1.000000  H     
 H27    1.0    0.545345    0.132142    0.805562 Biso 1.000000  H     
 H28    1.0    0.259685    0.538867    0.236187 Biso 1.000000  H     
 H29    1.0    0.552255    0.220510    0.643727 Biso 1.000000  H     
 H30    1.0    0.130492    0.495430    0.120649 Biso 1.000000  H     
 H31    1.0    0.416155    0.088708    0.690023 Biso 1.000000  H     
 H32    1.0    0.123580    0.407062    0.282480 Biso 1.000000  H     
 H33    1.0    0.472211    0.213453    0.807974 Biso 1.000000  H     
 H34    1.0    0.138878    0.546784    0.307976 Biso 1.000000  H     
 H35    1.0    0.832500    0.901104    0.206966 Biso 1.000000  H     
 H36    1.0    0.751125    0.826767    0.728056 Biso 1.000000  H     
 H37    1.0    0.741042    0.772075    0.319872 Biso 1.000000  H     
 H38    1.0    0.812339    0.791721    0.890607 Biso 1.000000  H     
 H39    1.0    0.893712    0.866057    0.369514 Biso 1.000000  H     
 H40    1.0    0.903795    0.920749    0.777703 Biso 1.000000  H     
 H41    1.0    0.853485    0.779142    0.204007 Biso 1.000000  H     
 H42    1.0    0.853487    0.779143    0.704010 Biso 1.000000  H     
 N1     1.0    0.496665    0.163333    0.236068 Biso 1.000000  N     
 N2     1.0    0.163330    0.496664    0.736068 Biso 1.000000  N     
 N3     1.0    0.496665    0.163330    0.736292 Biso 1.000000  N     
 N4     1.0    0.163334    0.496665    0.236292 Biso 1.000000  N     
 N5     1.0    0.830002    0.830002    0.275664 Biso 1.000000  N     
 N6     1.0    0.830001    0.830003    0.775664 Biso 1.000000  N     
