_cell_length_a                         12.558309
_cell_length_b                         12.558312
_cell_length_c                         8.381599
_cell_angle_alpha                      89.999947
_cell_angle_beta                       90.000084
_cell_angle_gamma                      120.000061
_space_group_IT_number                 1
 loop_
 _space_group_symop_operation_xyz 
 'x, y, z' 
 loop_ 
 _atom_site_label 
 _atom_site_occupancy 
 _atom_site_fract_x 
 _atom_site_fract_y
 _atom_site_fract_z
 _atom_site_adp_type
 _atom_site_U_iso_or_equiv
 _atom_site_type_symbol
 Zn1    1.0    0.161118    0.165534    0.753070 Biso 1.000000  Zn    
 Zn2    1.0    0.165534    0.834416    0.253069 Biso 1.000000  Zn    
 Zn3    1.0    0.834416    0.498881    0.753069 Biso 1.000000  Zn    
 Zn4    1.0    0.498882    0.494465    0.253070 Biso 1.000000  Zn    
 Zn5    1.0    0.494466    0.825584    0.753069 Biso 1.000000  Zn    
 Zn6    1.0    0.825584    0.161118    0.253070 Biso 1.000000  Zn    
 O1     1.0    0.091963    0.255969    0.897238 Biso 1.000000  O     
 O2     1.0    0.255970    0.994007    0.397238 Biso 1.000000  O     
 O3     1.0    0.994007    0.568037    0.897238 Biso 1.000000  O     
 O4     1.0    0.568037    0.404030    0.397238 Biso 1.000000  O     
 O5     1.0    0.404030    0.665993    0.897238 Biso 1.000000  O     
 O6     1.0    0.665993    0.091962    0.397238 Biso 1.000000  O     
 O7     1.0    0.984774    0.260656    0.107870 Biso 1.000000  O     
 O8     1.0    0.260656    0.105882    0.607870 Biso 1.000000  O     
 O9     1.0    0.105882    0.675226    0.107870 Biso 1.000000  O     
 O10    1.0    0.675226    0.399344    0.607870 Biso 1.000000  O     
 O11    1.0    0.399344    0.554118    0.107870 Biso 1.000000  O     
 O12    1.0    0.554118    0.984774    0.607870 Biso 1.000000  O     
 O13    1.0    0.322156    0.230248    0.898743 Biso 1.000000  O     
 O14    1.0    0.230248    0.738092    0.398742 Biso 1.000000  O     
 O15    1.0    0.738091    0.337843    0.898742 Biso 1.000000  O     
 O16    1.0    0.337844    0.429752    0.398743 Biso 1.000000  O     
 O17    1.0    0.429752    0.921908    0.898743 Biso 1.000000  O     
 O18    1.0    0.921908    0.322155    0.398742 Biso 1.000000  O     
 O19    1.0    0.435052    0.333378    0.110973 Biso 1.000000  O     
 O20    1.0    0.333378    0.728326    0.610974 Biso 1.000000  O     
 O21    1.0    0.728326    0.224947    0.110974 Biso 1.000000  O     
 O22    1.0    0.224948    0.326621    0.610974 Biso 1.000000  O     
 O23    1.0    0.326622    0.931674    0.110973 Biso 1.000000  O     
 O24    1.0    0.931674    0.435052    0.610973 Biso 1.000000  O     
 O25    1.0    0.063579    0.002932    0.892456 Biso 1.000000  O     
 O26    1.0    0.002932    0.769353    0.392456 Biso 1.000000  O     
 O27    1.0    0.769354    0.596421    0.892457 Biso 1.000000  O     
 O28    1.0    0.596421    0.657067    0.392456 Biso 1.000000  O     
 O29    1.0    0.657068    0.890646    0.892456 Biso 1.000000  O     
 O30    1.0    0.890646    0.063578    0.392456 Biso 1.000000  O     
 O31    1.0    0.071393    0.900253    0.106361 Biso 1.000000  O     
 O32    1.0    0.900253    0.658860    0.606361 Biso 1.000000  O     
 O33    1.0    0.658860    0.588606    0.106362 Biso 1.000000  O     
 O34    1.0    0.588607    0.759747    0.606361 Biso 1.000000  O     
 O35    1.0    0.759747    0.001140    0.106361 Biso 1.000000  O     
 O36    1.0    0.001140    0.071393    0.606361 Biso 1.000000  O     
 C1     1.0    0.015436    0.203651    0.010772 Biso 1.000000  C     
 C2     1.0    0.203651    0.018216    0.510772 Biso 1.000000  C     
 C3     1.0    0.018216    0.644564    0.010772 Biso 1.000000  C     
 C4     1.0    0.644564    0.456348    0.510772 Biso 1.000000  C     
 C5     1.0    0.456349    0.641784    0.010772 Biso 1.000000  C     
 C6     1.0    0.641784    0.015435    0.510772 Biso 1.000000  C     
 C7     1.0    0.344168    0.300805    0.018793 Biso 1.000000  C     
 C8     1.0    0.300805    0.786637    0.518793 Biso 1.000000  C     
 C9     1.0    0.786638    0.315832    0.018793 Biso 1.000000  C     
 C10    1.0    0.315832    0.359195    0.518792 Biso 1.000000  C     
 C11    1.0    0.359196    0.873363    0.018792 Biso 1.000000  C     
 C12    1.0    0.873363    0.344167    0.518792 Biso 1.000000  C     
 C13    1.0    0.121217    0.971191    0.987096 Biso 1.000000  C     
 C14    1.0    0.971191    0.679974    0.487097 Biso 1.000000  C     
 C15    1.0    0.679975    0.538782    0.987097 Biso 1.000000  C     
 C16    1.0    0.538783    0.688808    0.487097 Biso 1.000000  C     
 C17    1.0    0.688809    0.980025    0.987097 Biso 1.000000  C     
 C18    1.0    0.980026    0.121217    0.487097 Biso 1.000000  C     
 H1     1.0    0.975016    0.103279    0.023036 Biso 1.000000  H     
 H2     1.0    0.103279    0.958263    0.523035 Biso 1.000000  H     
 H3     1.0    0.958264    0.684984    0.023036 Biso 1.000000  H     
 H4     1.0    0.684984    0.556720    0.523036 Biso 1.000000  H     
 H5     1.0    0.556721    0.701736    0.023035 Biso 1.000000  H     
 H6     1.0    0.701736    0.975015    0.523035 Biso 1.000000  H     
 H7     1.0    0.280270    0.335400    0.041553 Biso 1.000000  H     
 H8     1.0    0.335400    0.885129    0.541554 Biso 1.000000  H     
 H9     1.0    0.885130    0.379729    0.041553 Biso 1.000000  H     
 H10    1.0    0.379730    0.324599    0.541553 Biso 1.000000  H     
 H11    1.0    0.324600    0.774870    0.041554 Biso 1.000000  H     
 H12    1.0    0.774870    0.280270    0.541553 Biso 1.000000  H     
 H13    1.0    0.220185    0.006205    0.967662 Biso 1.000000  H     
 H14    1.0    0.006205    0.616020    0.467663 Biso 1.000000  H     
 H15    1.0    0.616020    0.439814    0.967663 Biso 1.000000  H     
 H16    1.0    0.439814    0.653795    0.467662 Biso 1.000000  H     
 H17    1.0    0.653795    0.043980    0.967663 Biso 1.000000  H     
 H18    1.0    0.043980    0.220185    0.467663 Biso 1.000000  H     
 H19    1.0    0.136241    0.407397    0.841333 Biso 1.000000  H     
 H20    1.0    0.407397    0.101156    0.341334 Biso 1.000000  H     
 H21    1.0    0.101156    0.523759    0.841334 Biso 1.000000  H     
 H22    1.0    0.523759    0.252603    0.341333 Biso 1.000000  H     
 H23    1.0    0.252603    0.558844    0.841334 Biso 1.000000  H     
 H24    1.0    0.558844    0.136241    0.341333 Biso 1.000000  H     
 H25    1.0    0.496667    0.163333    0.180051 Biso 1.000000  H     
 H26    1.0    0.163333    0.496666    0.680051 Biso 1.000000  H     
 H27    1.0    0.433121    0.188794    0.841616 Biso 1.000000  H     
 H28    1.0    0.188795    0.585674    0.341616 Biso 1.000000  H     
 H29    1.0    0.585672    0.226878    0.841615 Biso 1.000000  H     
 H30    1.0    0.226877    0.471207    0.341614 Biso 1.000000  H     
 H31    1.0    0.471206    0.074331    0.841614 Biso 1.000000  H     
 H32    1.0    0.074329    0.433123    0.341615 Biso 1.000000  H     
 H33    1.0    0.496667    0.163333    0.680209 Biso 1.000000  H     
 H34    1.0    0.163333    0.496666    0.180209 Biso 1.000000  H     
 H35    1.0    0.919400    0.857304    0.164002 Biso 1.000000  H     
 H36    1.0    0.857304    0.767904    0.664002 Biso 1.000000  H     
 H37    1.0    0.767904    0.740599    0.164001 Biso 1.000000  H     
 H38    1.0    0.740600    0.802695    0.664002 Biso 1.000000  H     
 H39    1.0    0.802697    0.892094    0.164003 Biso 1.000000  H     
 H40    1.0    0.892094    0.919398    0.664002 Biso 1.000000  H     
 H41    1.0    0.830000    0.829999    0.325248 Biso 1.000000  H     
 H42    1.0    0.830000    0.830000    0.825248 Biso 1.000000  H     
 N1     1.0    0.496667    0.163333    0.301937 Biso 1.000000  N     
 N2     1.0    0.163333    0.496665    0.801937 Biso 1.000000  N     
 N3     1.0    0.496665    0.163328    0.802161 Biso 1.000000  N     
 N4     1.0    0.163334    0.496663    0.302161 Biso 1.000000  N     
 N5     1.0    0.830000    0.830003    0.203341 Biso 1.000000  N     
 N6     1.0    0.830002    0.830002    0.703341 Biso 1.000000  N     
