_cell_length_a                         12.558309
_cell_length_b                         12.558312
_cell_length_c                         8.381599
_cell_angle_alpha                      89.999947
_cell_angle_beta                       90.000084
_cell_angle_gamma                      120.000061
_space_group_IT_number                 1
 loop_
 _space_group_symop_operation_xyz 
 'x, y, z' 
 loop_ 
 _atom_site_label 
 _atom_site_occupancy 
 _atom_site_fract_x 
 _atom_site_fract_y
 _atom_site_fract_z
 _atom_site_adp_type
 _atom_site_U_iso_or_equiv
 _atom_site_type_symbol
 Zn1    1.0    0.162884    0.163768    0.754614 Biso 1.000000  Zn    
 Zn2    1.0    0.163768    0.830883    0.254613 Biso 1.000000  Zn    
 Zn3    1.0    0.830883    0.497115    0.754614 Biso 1.000000  Zn    
 Zn4    1.0    0.497115    0.496232    0.254614 Biso 1.000000  Zn    
 Zn5    1.0    0.496232    0.829117    0.754614 Biso 1.000000  Zn    
 Zn6    1.0    0.829117    0.162884    0.254614 Biso 1.000000  Zn    
 O1     1.0    0.097531    0.257844    0.899195 Biso 1.000000  O     
 O2     1.0    0.257844    0.990314    0.399195 Biso 1.000000  O     
 O3     1.0    0.990314    0.562469    0.899195 Biso 1.000000  O     
 O4     1.0    0.562469    0.402156    0.399195 Biso 1.000000  O     
 O5     1.0    0.402156    0.669686    0.899195 Biso 1.000000  O     
 O6     1.0    0.669686    0.097530    0.399195 Biso 1.000000  O     
 O7     1.0    0.988467    0.258782    0.109827 Biso 1.000000  O     
 O8     1.0    0.258781    0.100314    0.609827 Biso 1.000000  O     
 O9     1.0    0.100314    0.671533    0.109827 Biso 1.000000  O     
 O10    1.0    0.671533    0.401218    0.609827 Biso 1.000000  O     
 O11    1.0    0.401218    0.559686    0.109827 Biso 1.000000  O     
 O12    1.0    0.559686    0.988467    0.609827 Biso 1.000000  O     
 O13    1.0    0.323942    0.228128    0.898856 Biso 1.000000  O     
 O14    1.0    0.228128    0.734186    0.398856 Biso 1.000000  O     
 O15    1.0    0.734185    0.336057    0.898856 Biso 1.000000  O     
 O16    1.0    0.336058    0.431872    0.398857 Biso 1.000000  O     
 O17    1.0    0.431872    0.925814    0.898857 Biso 1.000000  O     
 O18    1.0    0.925814    0.323942    0.398856 Biso 1.000000  O     
 O19    1.0    0.432932    0.335164    0.111087 Biso 1.000000  O     
 O20    1.0    0.335164    0.732232    0.611088 Biso 1.000000  O     
 O21    1.0    0.732232    0.227067    0.111088 Biso 1.000000  O     
 O22    1.0    0.227068    0.324835    0.611087 Biso 1.000000  O     
 O23    1.0    0.324835    0.927768    0.111087 Biso 1.000000  O     
 O24    1.0    0.927768    0.432932    0.611087 Biso 1.000000  O     
 O25    1.0    0.066705    0.002215    0.896929 Biso 1.000000  O     
 O26    1.0    0.002215    0.765511    0.396929 Biso 1.000000  O     
 O27    1.0    0.765511    0.593295    0.896930 Biso 1.000000  O     
 O28    1.0    0.593295    0.657784    0.396929 Biso 1.000000  O     
 O29    1.0    0.657785    0.894489    0.896929 Biso 1.000000  O     
 O30    1.0    0.894489    0.066704    0.396929 Biso 1.000000  O     
 O31    1.0    0.068267    0.896410    0.110834 Biso 1.000000  O     
 O32    1.0    0.896410    0.658143    0.610834 Biso 1.000000  O     
 O33    1.0    0.658143    0.591732    0.110835 Biso 1.000000  O     
 O34    1.0    0.591733    0.763590    0.610834 Biso 1.000000  O     
 O35    1.0    0.763589    0.001857    0.110834 Biso 1.000000  O     
 O36    1.0    0.001857    0.068267    0.610834 Biso 1.000000  O     
 C1     1.0    0.016548    0.203651    0.006154 Biso 1.000000  C     
 C2     1.0    0.203651    0.017104    0.506154 Biso 1.000000  C     
 C3     1.0    0.017104    0.643452    0.006154 Biso 1.000000  C     
 C4     1.0    0.643452    0.456348    0.506154 Biso 1.000000  C     
 C5     1.0    0.456349    0.642896    0.006154 Biso 1.000000  C     
 C6     1.0    0.642896    0.016547    0.506154 Biso 1.000000  C     
 C7     1.0    0.350179    0.306816    0.007759 Biso 1.000000  C     
 C8     1.0    0.306816    0.786637    0.507759 Biso 1.000000  C     
 C9     1.0    0.786638    0.309821    0.007759 Biso 1.000000  C     
 C10    1.0    0.309821    0.353184    0.507758 Biso 1.000000  C     
 C11    1.0    0.353184    0.873363    0.007758 Biso 1.000000  C     
 C12    1.0    0.873363    0.350179    0.507758 Biso 1.000000  C     
 C13    1.0    0.121217    0.974725    1.001419 Biso 1.000000  C     
 C14    1.0    0.974725    0.683508    0.501419 Biso 1.000000  C     
 C15    1.0    0.683508    0.538782    1.001419 Biso 1.000000  C     
 C16    1.0    0.538783    0.685275    0.501419 Biso 1.000000  C     
 C17    1.0    0.685275    0.976491    1.001419 Biso 1.000000  C     
 C18    1.0    0.976492    0.121217    0.501420 Biso 1.000000  C     
 H1     1.0    0.968315    0.103279    0.008608 Biso 1.000000  H     
 H2     1.0    0.103279    0.964964    0.508607 Biso 1.000000  H     
 H3     1.0    0.964964    0.691685    0.008608 Biso 1.000000  H     
 H4     1.0    0.691685    0.556720    0.508608 Biso 1.000000  H     
 H5     1.0    0.556721    0.695035    0.008607 Biso 1.000000  H     
 H6     1.0    0.695035    0.968315    0.508607 Biso 1.000000  H     
 H7     1.0    0.298002    0.353132    0.012311 Biso 1.000000  H     
 H8     1.0    0.353132    0.885129    0.512311 Biso 1.000000  H     
 H9     1.0    0.885130    0.361997    0.012310 Biso 1.000000  H     
 H10    1.0    0.361998    0.306867    0.512311 Biso 1.000000  H     
 H11    1.0    0.306868    0.774870    0.012311 Biso 1.000000  H     
 H12    1.0    0.774870    0.298002    0.512310 Biso 1.000000  H     
 H13    1.0    0.220185    0.021315    0.997532 Biso 1.000000  H     
 H14    1.0    0.021315    0.631130    0.497533 Biso 1.000000  H     
 H15    1.0    0.631130    0.439814    0.997533 Biso 1.000000  H     
 H16    1.0    0.439814    0.638685    0.497532 Biso 1.000000  H     
 H17    1.0    0.638685    0.028870    0.997533 Biso 1.000000  H     
 H18    1.0    0.028870    0.220185    0.497533 Biso 1.000000  H     
 H19    1.0    0.111149    0.400858    0.751475 Biso 1.000000  H     
 H20    1.0    0.450807    0.103368    0.359380 Biso 1.000000  H     
 H21    1.0    0.186452    0.520563    0.884378 Biso 1.000000  H     
 H22    1.0    0.582439    0.235250    0.301471 Biso 1.000000  H     
 H23    1.0    0.242781    0.532739    0.693566 Biso 1.000000  H     
 H24    1.0    0.507136    0.115545    0.168568 Biso 1.000000  H     
 H25    1.0    0.444709    0.200290    0.226633 Biso 1.000000  H     
 H26    1.0    0.111375    0.533623    0.726634 Biso 1.000000  H     
 H27    1.0    0.518164    0.185992    0.885408 Biso 1.000000  H     
 H28    1.0    0.248085    0.569409    0.303853 Biso 1.000000  H     
 H29    1.0    0.577097    0.201857    0.695160 Biso 1.000000  H     
 H30    1.0    0.176194    0.450891    0.168029 Biso 1.000000  H     
 H31    1.0    0.446277    0.067477    0.749583 Biso 1.000000  H     
 H32    1.0    0.117262    0.435026    0.358273 Biso 1.000000  H     
 H33    1.0    0.443581    0.199066    0.726837 Biso 1.000000  H     
 H34    1.0    0.110248    0.532399    0.226840 Biso 1.000000  H     
 H35    1.0    0.851026    0.855677    0.124570 Biso 1.000000  H     
 H36    1.0    0.775053    0.776532    0.649362 Biso 1.000000  H     
 H37    1.0    0.737074    0.762580    0.257297 Biso 1.000000  H     
 H38    1.0    0.775074    0.827778    0.840452 Biso 1.000000  H     
 H39    1.0    0.851048    0.906921    0.315658 Biso 1.000000  H     
 H40    1.0    0.889024    0.920873    0.707725 Biso 1.000000  H     
 H41    1.0    0.882516    0.793656    0.282337 Biso 1.000000  H     
 H42    1.0    0.882518    0.793659    0.782341 Biso 1.000000  H     
 N1     1.0    0.496667    0.163333    0.264298 Biso 1.000000  N     
 N2     1.0    0.163332    0.496664    0.764298 Biso 1.000000  N     
 N3     1.0    0.496666    0.163329    0.764522 Biso 1.000000  N     
 N4     1.0    0.163335    0.496664    0.264522 Biso 1.000000  N     
 N5     1.0    0.830000    0.830003    0.244668 Biso 1.000000  N     
 N6     1.0    0.830001    0.830003    0.744668 Biso 1.000000  N     
