_cell_length_a                         12.558309
_cell_length_b                         12.558312
_cell_length_c                         8.381599
_cell_angle_alpha                      89.999947
_cell_angle_beta                       90.000084
_cell_angle_gamma                      120.000061
_space_group_IT_number                 1
 loop_
 _space_group_symop_operation_xyz 
 'x, y, z' 
 loop_ 
 _atom_site_label 
 _atom_site_occupancy 
 _atom_site_fract_x 
 _atom_site_fract_y
 _atom_site_fract_z
 _atom_site_adp_type
 _atom_site_U_iso_or_equiv
 _atom_site_type_symbol
 Zn1    1.0    0.162443    0.164209    0.754228 Biso 1.000000  Zn    
 Zn2    1.0    0.164209    0.831766    0.254227 Biso 1.000000  Zn    
 Zn3    1.0    0.831766    0.497557    0.754228 Biso 1.000000  Zn    
 Zn4    1.0    0.497557    0.495790    0.254228 Biso 1.000000  Zn    
 Zn5    1.0    0.495791    0.828234    0.754228 Biso 1.000000  Zn    
 Zn6    1.0    0.828234    0.162443    0.254228 Biso 1.000000  Zn    
 O1     1.0    0.096139    0.257375    0.898706 Biso 1.000000  O     
 O2     1.0    0.257376    0.991237    0.398706 Biso 1.000000  O     
 O3     1.0    0.991237    0.563861    0.898706 Biso 1.000000  O     
 O4     1.0    0.563861    0.402624    0.398706 Biso 1.000000  O     
 O5     1.0    0.402624    0.668763    0.898706 Biso 1.000000  O     
 O6     1.0    0.668763    0.096138    0.398706 Biso 1.000000  O     
 O7     1.0    0.987544    0.259250    0.109338 Biso 1.000000  O     
 O8     1.0    0.259250    0.101706    0.609338 Biso 1.000000  O     
 O9     1.0    0.101706    0.672456    0.109338 Biso 1.000000  O     
 O10    1.0    0.672456    0.400750    0.609338 Biso 1.000000  O     
 O11    1.0    0.400750    0.558294    0.109338 Biso 1.000000  O     
 O12    1.0    0.558294    0.987544    0.609338 Biso 1.000000  O     
 O13    1.0    0.323495    0.228658    0.898828 Biso 1.000000  O     
 O14    1.0    0.228658    0.735162    0.398827 Biso 1.000000  O     
 O15    1.0    0.735162    0.336504    0.898827 Biso 1.000000  O     
 O16    1.0    0.336504    0.431342    0.398828 Biso 1.000000  O     
 O17    1.0    0.431342    0.924838    0.898828 Biso 1.000000  O     
 O18    1.0    0.924838    0.323495    0.398828 Biso 1.000000  O     
 O19    1.0    0.433462    0.334718    0.111058 Biso 1.000000  O     
 O20    1.0    0.334718    0.731256    0.611059 Biso 1.000000  O     
 O21    1.0    0.731256    0.226537    0.111059 Biso 1.000000  O     
 O22    1.0    0.226538    0.325282    0.611059 Biso 1.000000  O     
 O23    1.0    0.325282    0.928744    0.111059 Biso 1.000000  O     
 O24    1.0    0.928744    0.433462    0.611058 Biso 1.000000  O     
 O25    1.0    0.065923    0.002394    0.895811 Biso 1.000000  O     
 O26    1.0    0.002394    0.766471    0.395811 Biso 1.000000  O     
 O27    1.0    0.766472    0.594077    0.895812 Biso 1.000000  O     
 O28    1.0    0.594077    0.657605    0.395811 Biso 1.000000  O     
 O29    1.0    0.657606    0.893528    0.895811 Biso 1.000000  O     
 O30    1.0    0.893528    0.065922    0.395811 Biso 1.000000  O     
 O31    1.0    0.069048    0.897371    0.109716 Biso 1.000000  O     
 O32    1.0    0.897371    0.658322    0.609716 Biso 1.000000  O     
 O33    1.0    0.658322    0.590950    0.109717 Biso 1.000000  O     
 O34    1.0    0.590951    0.762629    0.609716 Biso 1.000000  O     
 O35    1.0    0.762629    0.001678    0.109716 Biso 1.000000  O     
 O36    1.0    0.001678    0.069049    0.609716 Biso 1.000000  O     
 C1     1.0    0.016270    0.203651    0.007309 Biso 1.000000  C     
 C2     1.0    0.203651    0.017382    0.507309 Biso 1.000000  C     
 C3     1.0    0.017382    0.643730    0.007309 Biso 1.000000  C     
 C4     1.0    0.643730    0.456348    0.507309 Biso 1.000000  C     
 C5     1.0    0.456349    0.642618    0.007309 Biso 1.000000  C     
 C6     1.0    0.642618    0.016269    0.507309 Biso 1.000000  C     
 C7     1.0    0.348676    0.305313    0.010518 Biso 1.000000  C     
 C8     1.0    0.305313    0.786637    0.510517 Biso 1.000000  C     
 C9     1.0    0.786638    0.311324    0.010517 Biso 1.000000  C     
 C10    1.0    0.311324    0.354687    0.510517 Biso 1.000000  C     
 C11    1.0    0.354687    0.873363    0.010517 Biso 1.000000  C     
 C12    1.0    0.873363    0.348676    0.510517 Biso 1.000000  C     
 C13    1.0    0.121217    0.973842    0.997838 Biso 1.000000  C     
 C14    1.0    0.973841    0.682624    0.497839 Biso 1.000000  C     
 C15    1.0    0.682625    0.538782    0.997839 Biso 1.000000  C     
 C16    1.0    0.538783    0.686158    0.497839 Biso 1.000000  C     
 C17    1.0    0.686159    0.977375    0.997839 Biso 1.000000  C     
 C18    1.0    0.977375    0.121217    0.497839 Biso 1.000000  C     
 H1     1.0    0.969990    0.103279    0.012215 Biso 1.000000  H     
 H2     1.0    0.103279    0.963289    0.512214 Biso 1.000000  H     
 H3     1.0    0.963289    0.690010    0.012215 Biso 1.000000  H     
 H4     1.0    0.690010    0.556720    0.512215 Biso 1.000000  H     
 H5     1.0    0.556721    0.696710    0.012214 Biso 1.000000  H     
 H6     1.0    0.696710    0.969990    0.512214 Biso 1.000000  H     
 H7     1.0    0.293569    0.348699    0.019621 Biso 1.000000  H     
 H8     1.0    0.348699    0.885129    0.519622 Biso 1.000000  H     
 H9     1.0    0.885130    0.366430    0.019621 Biso 1.000000  H     
 H10    1.0    0.366431    0.311300    0.519621 Biso 1.000000  H     
 H11    1.0    0.311301    0.774870    0.019622 Biso 1.000000  H     
 H12    1.0    0.774870    0.293569    0.519621 Biso 1.000000  H     
 H13    1.0    0.220185    0.017537    0.990065 Biso 1.000000  H     
 H14    1.0    0.017537    0.627352    0.490065 Biso 1.000000  H     
 H15    1.0    0.627352    0.439814    0.990066 Biso 1.000000  H     
 H16    1.0    0.439814    0.642463    0.490065 Biso 1.000000  H     
 H17    1.0    0.642463    0.032647    0.990065 Biso 1.000000  H     
 H18    1.0    0.032647    0.220185    0.490065 Biso 1.000000  H     
 H19    1.0    0.120900    0.400457    0.775600 Biso 1.000000  H     
 H20    1.0    0.440300    0.109003    0.367390 Biso 1.000000  H     
 H21    1.0    0.165731    0.530821    0.888655 Biso 1.000000  H     
 H22    1.0    0.571763    0.244095    0.318130 Biso 1.000000  H     
 H23    1.0    0.252363    0.535548    0.726341 Biso 1.000000  H     
 H24    1.0    0.526932    0.113730    0.205076 Biso 1.000000  H     
 H25    1.0    0.446141    0.187229    0.202065 Biso 1.000000  H     
 H26    1.0    0.112807    0.520562    0.702066 Biso 1.000000  H     
 H27    1.0    0.497197    0.195842    0.889584 Biso 1.000000  H     
 H28    1.0    0.237002    0.577930    0.320208 Biso 1.000000  H     
 H29    1.0    0.586370    0.204620    0.727748 Biso 1.000000  H     
 H30    1.0    0.195936    0.449227    0.204669 Biso 1.000000  H     
 H31    1.0    0.456135    0.067142    0.774043 Biso 1.000000  H     
 H32    1.0    0.106766    0.440448    0.366501 Biso 1.000000  H     
 H33    1.0    0.445470    0.186416    0.702251 Biso 1.000000  H     
 H34    1.0    0.112136    0.519749    0.202253 Biso 1.000000  H     
 H35    1.0    0.868278    0.847659    0.119392 Biso 1.000000  H     
 H36    1.0    0.793941    0.766285    0.640482 Biso 1.000000  H     
 H37    1.0    0.739248    0.756202    0.232297 Biso 1.000000  H     
 H38    1.0    0.758895    0.827498    0.803033 Biso 1.000000  H     
 H39    1.0    0.833232    0.908871    0.281942 Biso 1.000000  H     
 H40    1.0    0.887923    0.918954    0.690129 Biso 1.000000  H     
 H41    1.0    0.880856    0.806511    0.305989 Biso 1.000000  H     
 H42    1.0    0.880857    0.806514    0.805992 Biso 1.000000  H     
 N1     1.0    0.496667    0.163333    0.273708 Biso 1.000000  N     
 N2     1.0    0.163333    0.496664    0.773708 Biso 1.000000  N     
 N3     1.0    0.496666    0.163329    0.773932 Biso 1.000000  N     
 N4     1.0    0.163335    0.496664    0.273932 Biso 1.000000  N     
 N5     1.0    0.830000    0.830003    0.234336 Biso 1.000000  N     
 N6     1.0    0.830001    0.830003    0.734336 Biso 1.000000  N     
