_cell_length_a                         12.558309
_cell_length_b                         12.558312
_cell_length_c                         8.381599
_cell_angle_alpha                      89.999947
_cell_angle_beta                       90.000084
_cell_angle_gamma                      120.000061
_space_group_IT_number                 1
 loop_
 _space_group_symop_operation_xyz 
 'x, y, z' 
 loop_ 
 _atom_site_label 
 _atom_site_occupancy 
 _atom_site_fract_x 
 _atom_site_fract_y
 _atom_site_fract_z
 _atom_site_adp_type
 _atom_site_U_iso_or_equiv
 _atom_site_type_symbol
 Zn1    1.0    0.162001    0.164651    0.753842 Biso 1.000000  Zn    
 Zn2    1.0    0.164651    0.832650    0.253841 Biso 1.000000  Zn    
 Zn3    1.0    0.832650    0.497998    0.753841 Biso 1.000000  Zn    
 Zn4    1.0    0.497999    0.495348    0.253842 Biso 1.000000  Zn    
 Zn5    1.0    0.495349    0.827350    0.753841 Biso 1.000000  Zn    
 Zn6    1.0    0.827350    0.162001    0.253842 Biso 1.000000  Zn    
 O1     1.0    0.094747    0.256906    0.898216 Biso 1.000000  O     
 O2     1.0    0.256907    0.992160    0.398216 Biso 1.000000  O     
 O3     1.0    0.992160    0.565253    0.898216 Biso 1.000000  O     
 O4     1.0    0.565253    0.403093    0.398216 Biso 1.000000  O     
 O5     1.0    0.403093    0.667840    0.898216 Biso 1.000000  O     
 O6     1.0    0.667840    0.094746    0.398216 Biso 1.000000  O     
 O7     1.0    0.986621    0.259719    0.108848 Biso 1.000000  O     
 O8     1.0    0.259719    0.103098    0.608848 Biso 1.000000  O     
 O9     1.0    0.103098    0.673379    0.108848 Biso 1.000000  O     
 O10    1.0    0.673379    0.400281    0.608848 Biso 1.000000  O     
 O11    1.0    0.400281    0.556902    0.108848 Biso 1.000000  O     
 O12    1.0    0.556902    0.986621    0.608848 Biso 1.000000  O     
 O13    1.0    0.323049    0.229188    0.898800 Biso 1.000000  O     
 O14    1.0    0.229188    0.736139    0.398799 Biso 1.000000  O     
 O15    1.0    0.736138    0.336950    0.898799 Biso 1.000000  O     
 O16    1.0    0.336951    0.430812    0.398800 Biso 1.000000  O     
 O17    1.0    0.430812    0.923861    0.898800 Biso 1.000000  O     
 O18    1.0    0.923861    0.323048    0.398799 Biso 1.000000  O     
 O19    1.0    0.433992    0.334271    0.111030 Biso 1.000000  O     
 O20    1.0    0.334271    0.730279    0.611031 Biso 1.000000  O     
 O21    1.0    0.730279    0.226007    0.111031 Biso 1.000000  O     
 O22    1.0    0.226008    0.325728    0.611031 Biso 1.000000  O     
 O23    1.0    0.325729    0.929721    0.111030 Biso 1.000000  O     
 O24    1.0    0.929721    0.433992    0.611030 Biso 1.000000  O     
 O25    1.0    0.065142    0.002574    0.894693 Biso 1.000000  O     
 O26    1.0    0.002574    0.767432    0.394693 Biso 1.000000  O     
 O27    1.0    0.767433    0.594858    0.894693 Biso 1.000000  O     
 O28    1.0    0.594858    0.657426    0.394692 Biso 1.000000  O     
 O29    1.0    0.657426    0.892567    0.894693 Biso 1.000000  O     
 O30    1.0    0.892567    0.065141    0.394693 Biso 1.000000  O     
 O31    1.0    0.069830    0.898332    0.108598 Biso 1.000000  O     
 O32    1.0    0.898332    0.658502    0.608598 Biso 1.000000  O     
 O33    1.0    0.658501    0.590169    0.108598 Biso 1.000000  O     
 O34    1.0    0.590170    0.761668    0.608597 Biso 1.000000  O     
 O35    1.0    0.761668    0.001498    0.108598 Biso 1.000000  O     
 O36    1.0    0.001498    0.069830    0.608598 Biso 1.000000  O     
 C1     1.0    0.015992    0.203651    0.008463 Biso 1.000000  C     
 C2     1.0    0.203651    0.017660    0.508463 Biso 1.000000  C     
 C3     1.0    0.017660    0.644008    0.008463 Biso 1.000000  C     
 C4     1.0    0.644008    0.456348    0.508463 Biso 1.000000  C     
 C5     1.0    0.456349    0.642340    0.008463 Biso 1.000000  C     
 C6     1.0    0.642340    0.015991    0.508463 Biso 1.000000  C     
 C7     1.0    0.347173    0.303810    0.013276 Biso 1.000000  C     
 C8     1.0    0.303810    0.786637    0.513276 Biso 1.000000  C     
 C9     1.0    0.786638    0.312827    0.013276 Biso 1.000000  C     
 C10    1.0    0.312827    0.356190    0.513275 Biso 1.000000  C     
 C11    1.0    0.356190    0.873363    0.013275 Biso 1.000000  C     
 C12    1.0    0.873363    0.347173    0.513275 Biso 1.000000  C     
 C13    1.0    0.121217    0.972958    0.994257 Biso 1.000000  C     
 C14    1.0    0.972958    0.681741    0.494258 Biso 1.000000  C     
 C15    1.0    0.681742    0.538782    0.994258 Biso 1.000000  C     
 C16    1.0    0.538783    0.687041    0.494258 Biso 1.000000  C     
 C17    1.0    0.687042    0.978258    0.994258 Biso 1.000000  C     
 C18    1.0    0.978259    0.121217    0.494258 Biso 1.000000  C     
 H1     1.0    0.971665    0.103279    0.015822 Biso 1.000000  H     
 H2     1.0    0.103279    0.961614    0.515821 Biso 1.000000  H     
 H3     1.0    0.961614    0.688334    0.015822 Biso 1.000000  H     
 H4     1.0    0.688334    0.556720    0.515822 Biso 1.000000  H     
 H5     1.0    0.556721    0.698386    0.015821 Biso 1.000000  H     
 H6     1.0    0.698386    0.971665    0.515821 Biso 1.000000  H     
 H7     1.0    0.289136    0.344266    0.026932 Biso 1.000000  H     
 H8     1.0    0.344266    0.885129    0.526933 Biso 1.000000  H     
 H9     1.0    0.885130    0.370863    0.026932 Biso 1.000000  H     
 H10    1.0    0.370864    0.315733    0.526932 Biso 1.000000  H     
 H11    1.0    0.315734    0.774870    0.026933 Biso 1.000000  H     
 H12    1.0    0.774870    0.289136    0.526932 Biso 1.000000  H     
 H13    1.0    0.220185    0.013760    0.982597 Biso 1.000000  H     
 H14    1.0    0.013760    0.623575    0.482598 Biso 1.000000  H     
 H15    1.0    0.623575    0.439814    0.982598 Biso 1.000000  H     
 H16    1.0    0.439814    0.646240    0.482597 Biso 1.000000  H     
 H17    1.0    0.646240    0.036425    0.982598 Biso 1.000000  H     
 H18    1.0    0.036425    0.220185    0.482598 Biso 1.000000  H     
 H19    1.0    0.128701    0.402174    0.799541 Biso 1.000000  H     
 H20    1.0    0.427851    0.110290    0.366230 Biso 1.000000  H     
 H21    1.0    0.142367    0.534339    0.881680 Biso 1.000000  H     
 H22    1.0    0.557732    0.250272    0.330440 Biso 1.000000  H     
 H23    1.0    0.258583    0.542156    0.763752 Biso 1.000000  H     
 H24    1.0    0.544067    0.118107    0.248301 Biso 1.000000  H     
 H25    1.0    0.455777    0.175018    0.184510 Biso 1.000000  H     
 H26    1.0    0.122443    0.508351    0.684511 Biso 1.000000  H     
 H27    1.0    0.473826    0.199158    0.882438 Biso 1.000000  H     
 H28    1.0    0.222703    0.583783    0.332034 Biso 1.000000  H     
 H29    1.0    0.592204    0.210974    0.764857 Biso 1.000000  H     
 H30    1.0    0.212831    0.453547    0.248089 Biso 1.000000  H     
 H31    1.0    0.463957    0.068926    0.798492 Biso 1.000000  H     
 H32    1.0    0.094455    0.441730    0.365667 Biso 1.000000  H     
 H33    1.0    0.455475    0.174613    0.684681 Biso 1.000000  H     
 H34    1.0    0.122141    0.507946    0.184683 Biso 1.000000  H     
 H35    1.0    0.887612    0.845700    0.125466 Biso 1.000000  H     
 H36    1.0    0.815715    0.761633    0.640789 Biso 1.000000  H     
 H37    1.0    0.744858    0.749636    0.207496 Biso 1.000000  H     
 H38    1.0    0.745900    0.821709    0.758889 Biso 1.000000  H     
 H39    1.0    0.817797    0.905774    0.243566 Biso 1.000000  H     
 H40    1.0    0.888651    0.917771    0.676859 Biso 1.000000  H     
 H41    1.0    0.871036    0.818517    0.322627 Biso 1.000000  H     
 H42    1.0    0.871037    0.818519    0.822630 Biso 1.000000  H     
 N1     1.0    0.496667    0.163333    0.283118 Biso 1.000000  N     
 N2     1.0    0.163333    0.496665    0.783118 Biso 1.000000  N     
 N3     1.0    0.496666    0.163329    0.783342 Biso 1.000000  N     
 N4     1.0    0.163335    0.496664    0.283342 Biso 1.000000  N     
 N5     1.0    0.830000    0.830003    0.224004 Biso 1.000000  N     
 N6     1.0    0.830001    0.830002    0.724004 Biso 1.000000  N     
