_cell_length_a                         12.558309
_cell_length_b                         12.558312
_cell_length_c                         8.381599
_cell_angle_alpha                      89.999947
_cell_angle_beta                       90.000084
_cell_angle_gamma                      120.000061
_space_group_IT_number                 1
 loop_
 _space_group_symop_operation_xyz 
 'x, y, z' 
 loop_ 
 _atom_site_label 
 _atom_site_occupancy 
 _atom_site_fract_x 
 _atom_site_fract_y
 _atom_site_fract_z
 _atom_site_adp_type
 _atom_site_U_iso_or_equiv
 _atom_site_type_symbol
 Zn1    1.0    0.164651    0.162001    0.756158 Biso 1.000000  Zn    
 Zn2    1.0    0.162001    0.827350    0.256158 Biso 1.000000  Zn    
 Zn3    1.0    0.827350    0.495349    0.756159 Biso 1.000000  Zn    
 Zn4    1.0    0.495348    0.497999    0.256158 Biso 1.000000  Zn    
 Zn5    1.0    0.497998    0.832650    0.756159 Biso 1.000000  Zn    
 Zn6    1.0    0.832650    0.164651    0.256159 Biso 1.000000  Zn    
 O1     1.0    0.103098    0.259719    0.901152 Biso 1.000000  O     
 O2     1.0    0.259719    0.986621    0.401152 Biso 1.000000  O     
 O3     1.0    0.986621    0.556902    0.901152 Biso 1.000000  O     
 O4     1.0    0.556902    0.400281    0.401152 Biso 1.000000  O     
 O5     1.0    0.400281    0.673379    0.901152 Biso 1.000000  O     
 O6     1.0    0.673379    0.103098    0.401152 Biso 1.000000  O     
 O7     1.0    0.992160    0.256907    0.111784 Biso 1.000000  O     
 O8     1.0    0.256906    0.094747    0.611784 Biso 1.000000  O     
 O9     1.0    0.094746    0.667840    0.111784 Biso 1.000000  O     
 O10    1.0    0.667840    0.403093    0.611784 Biso 1.000000  O     
 O11    1.0    0.403093    0.565253    0.111784 Biso 1.000000  O     
 O12    1.0    0.565253    0.992160    0.611784 Biso 1.000000  O     
 O13    1.0    0.325728    0.226008    0.898969 Biso 1.000000  O     
 O14    1.0    0.226007    0.730279    0.398969 Biso 1.000000  O     
 O15    1.0    0.730279    0.334271    0.898969 Biso 1.000000  O     
 O16    1.0    0.334271    0.433992    0.398970 Biso 1.000000  O     
 O17    1.0    0.433992    0.929721    0.898970 Biso 1.000000  O     
 O18    1.0    0.929721    0.325729    0.398970 Biso 1.000000  O     
 O19    1.0    0.430812    0.336951    0.111200 Biso 1.000000  O     
 O20    1.0    0.336950    0.736138    0.611201 Biso 1.000000  O     
 O21    1.0    0.736139    0.229188    0.111201 Biso 1.000000  O     
 O22    1.0    0.229188    0.323049    0.611200 Biso 1.000000  O     
 O23    1.0    0.323048    0.923861    0.111201 Biso 1.000000  O     
 O24    1.0    0.923861    0.430812    0.611200 Biso 1.000000  O     
 O25    1.0    0.069830    0.001498    0.901402 Biso 1.000000  O     
 O26    1.0    0.001498    0.761668    0.401402 Biso 1.000000  O     
 O27    1.0    0.761668    0.590170    0.901403 Biso 1.000000  O     
 O28    1.0    0.590169    0.658501    0.401402 Biso 1.000000  O     
 O29    1.0    0.658502    0.898332    0.901402 Biso 1.000000  O     
 O30    1.0    0.898332    0.069830    0.401402 Biso 1.000000  O     
 O31    1.0    0.065141    0.892567    0.115307 Biso 1.000000  O     
 O32    1.0    0.892567    0.657426    0.615307 Biso 1.000000  O     
 O33    1.0    0.657426    0.594858    0.115308 Biso 1.000000  O     
 O34    1.0    0.594858    0.767433    0.615307 Biso 1.000000  O     
 O35    1.0    0.767432    0.002574    0.115307 Biso 1.000000  O     
 O36    1.0    0.002574    0.065142    0.615307 Biso 1.000000  O     
 C1     1.0    0.017660    0.203651    0.001537 Biso 1.000000  C     
 C2     1.0    0.203651    0.015992    0.501537 Biso 1.000000  C     
 C3     1.0    0.015991    0.642340    0.001537 Biso 1.000000  C     
 C4     1.0    0.642340    0.456349    0.501537 Biso 1.000000  C     
 C5     1.0    0.456348    0.644008    0.001537 Biso 1.000000  C     
 C6     1.0    0.644008    0.017660    0.501537 Biso 1.000000  C     
 C7     1.0    0.356190    0.312827   -0.003275 Biso 1.000000  C     
 C8     1.0    0.312827    0.786638    0.496724 Biso 1.000000  C     
 C9     1.0    0.786637    0.303810   -0.003276 Biso 1.000000  C     
 C10    1.0    0.303810    0.347173    0.496724 Biso 1.000000  C     
 C11    1.0    0.347173    0.873363   -0.003275 Biso 1.000000  C     
 C12    1.0    0.873363    0.356190    0.496725 Biso 1.000000  C     
 C13    1.0    0.121217    0.978259    1.015742 Biso 1.000000  C     
 C14    1.0    0.978258    0.687042    0.515742 Biso 1.000000  C     
 C15    1.0    0.687041    0.538783    1.015742 Biso 1.000000  C     
 C16    1.0    0.538782    0.681742    0.515742 Biso 1.000000  C     
 C17    1.0    0.681741    0.972958    1.015742 Biso 1.000000  C     
 C18    1.0    0.972958    0.121217    0.515743 Biso 1.000000  C     
 H1     1.0    0.961614    0.103279   -0.005821 Biso 1.000000  H     
 H2     1.0    0.103279    0.971665    0.494178 Biso 1.000000  H     
 H3     1.0    0.971665    0.698386   -0.005821 Biso 1.000000  H     
 H4     1.0    0.698386    0.556721    0.494179 Biso 1.000000  H     
 H5     1.0    0.556720    0.688334   -0.005822 Biso 1.000000  H     
 H6     1.0    0.688334    0.961614    0.494178 Biso 1.000000  H     
 H7     1.0    0.315733    0.370864   -0.016932 Biso 1.000000  H     
 H8     1.0    0.370863    0.885130    0.483068 Biso 1.000000  H     
 H9     1.0    0.885129    0.344266   -0.016933 Biso 1.000000  H     
 H10    1.0    0.344266    0.289136    0.483068 Biso 1.000000  H     
 H11    1.0    0.289136    0.774870   -0.016932 Biso 1.000000  H     
 H12    1.0    0.774870    0.315734    0.483067 Biso 1.000000  H     
 H13    1.0    0.220185    0.036425    1.027402 Biso 1.000000  H     
 H14    1.0    0.036425    0.646240    0.527402 Biso 1.000000  H     
 H15    1.0    0.646240    0.439814    1.027403 Biso 1.000000  H     
 H16    1.0    0.439814    0.623575    0.527402 Biso 1.000000  H     
 H17    1.0    0.623575    0.013760    1.027402 Biso 1.000000  H     
 H18    1.0    0.013760    0.220185    0.527403 Biso 1.000000  H     
 H19    1.0    0.076020    0.436852    0.679337 Biso 1.000000  H     
 H20    1.0    0.449588    0.068054    0.246025 Biso 1.000000  H     
 H21    1.0    0.207009    0.447756    0.761474 Biso 1.000000  H     
 H22    1.0    0.590862    0.196260    0.210235 Biso 1.000000  H     
 H23    1.0    0.217295    0.565058    0.643546 Biso 1.000000  H     
 H24    1.0    0.459874    0.185356    0.128098 Biso 1.000000  H     
 H25    1.0    0.486010    0.204923    0.325266 Biso 1.000000  H     
 H26    1.0    0.152676    0.538254    0.825266 Biso 1.000000  H     
 H27    1.0    0.541349    0.115340    0.762139 Biso 1.000000  H     
 H28    1.0    0.258053    0.531091    0.211736 Biso 1.000000  H     
 H29    1.0    0.550688    0.232654    0.644560 Biso 1.000000  H     
 H30    1.0    0.126625    0.518465    0.127793 Biso 1.000000  H     
 H31    1.0    0.409924    0.102716    0.678196 Biso 1.000000  H     
 H32    1.0    0.117285    0.401152    0.245369 Biso 1.000000  H     
 H33    1.0    0.484362    0.203819    0.825543 Biso 1.000000  H     
 H34    1.0    0.151028    0.537150    0.325545 Biso 1.000000  H     
 H35    1.0    0.838289    0.914100    0.251110 Biso 1.000000  H     
 H36    1.0    0.754222    0.842203    0.766433 Biso 1.000000  H     
 H37    1.0    0.742225    0.771346    0.333141 Biso 1.000000  H     
 H38    1.0    0.814299    0.772387    0.884533 Biso 1.000000  H     
 H39    1.0    0.898364    0.844284    0.369208 Biso 1.000000  H     
 H40    1.0    0.910361    0.915139    0.802503 Biso 1.000000  H     
 H41    1.0    0.841479    0.788962    0.187369 Biso 1.000000  H     
 H42    1.0    0.841481    0.788963    0.687372 Biso 1.000000  H     
 N1     1.0    0.496664    0.163333    0.226658 Biso 1.000000  N     
 N2     1.0    0.163329    0.496664    0.726658 Biso 1.000000  N     
 N3     1.0    0.496665    0.163331    0.726882 Biso 1.000000  N     
 N4     1.0    0.163333    0.496665    0.226882 Biso 1.000000  N     
 N5     1.0    0.830002    0.830002    0.285996 Biso 1.000000  N     
 N6     1.0    0.830002    0.830003    0.785996 Biso 1.000000  N     
