_cell_length_a                         12.558309
_cell_length_b                         12.558312
_cell_length_c                         8.381599
_cell_angle_alpha                      89.999947
_cell_angle_beta                       90.000084
_cell_angle_gamma                      120.000061
_space_group_IT_number                 1
 loop_
 _space_group_symop_operation_xyz 
 'x, y, z' 
 loop_ 
 _atom_site_label 
 _atom_site_occupancy 
 _atom_site_fract_x 
 _atom_site_fract_y
 _atom_site_fract_z
 _atom_site_adp_type
 _atom_site_U_iso_or_equiv
 _atom_site_type_symbol
 Zn1    1.0    0.165092    0.161560    0.756544 Biso 1.000000  Zn    
 Zn2    1.0    0.161560    0.826467    0.256544 Biso 1.000000  Zn    
 Zn3    1.0    0.826467    0.494908    0.756545 Biso 1.000000  Zn    
 Zn4    1.0    0.494907    0.498440    0.256544 Biso 1.000000  Zn    
 Zn5    1.0    0.498440    0.833533    0.756545 Biso 1.000000  Zn    
 Zn6    1.0    0.833533    0.165092    0.256545 Biso 1.000000  Zn    
 O1     1.0    0.104490    0.260187    0.901641 Biso 1.000000  O     
 O2     1.0    0.260187    0.985697    0.401641 Biso 1.000000  O     
 O3     1.0    0.985697    0.555510    0.901641 Biso 1.000000  O     
 O4     1.0    0.555510    0.399813    0.401641 Biso 1.000000  O     
 O5     1.0    0.399813    0.674303    0.901641 Biso 1.000000  O     
 O6     1.0    0.674303    0.104490    0.401641 Biso 1.000000  O     
 O7     1.0    0.993084    0.256439    0.112273 Biso 1.000000  O     
 O8     1.0    0.256438    0.093355    0.612273 Biso 1.000000  O     
 O9     1.0    0.093354    0.666916    0.112273 Biso 1.000000  O     
 O10    1.0    0.666916    0.403561    0.612273 Biso 1.000000  O     
 O11    1.0    0.403561    0.566645    0.112273 Biso 1.000000  O     
 O12    1.0    0.566645    0.993084    0.612273 Biso 1.000000  O     
 O13    1.0    0.326174    0.225478    0.898998 Biso 1.000000  O     
 O14    1.0    0.225477    0.729303    0.398998 Biso 1.000000  O     
 O15    1.0    0.729303    0.333825    0.898998 Biso 1.000000  O     
 O16    1.0    0.333825    0.434522    0.398999 Biso 1.000000  O     
 O17    1.0    0.434522    0.930697    0.898999 Biso 1.000000  O     
 O18    1.0    0.930697    0.326175    0.398999 Biso 1.000000  O     
 O19    1.0    0.430282    0.337397    0.111229 Biso 1.000000  O     
 O20    1.0    0.337396    0.737115    0.611230 Biso 1.000000  O     
 O21    1.0    0.737115    0.229718    0.111230 Biso 1.000000  O     
 O22    1.0    0.229718    0.322603    0.611229 Biso 1.000000  O     
 O23    1.0    0.322602    0.922885    0.111229 Biso 1.000000  O     
 O24    1.0    0.922885    0.430282    0.611229 Biso 1.000000  O     
 O25    1.0    0.070612    0.001319    0.902521 Biso 1.000000  O     
 O26    1.0    0.001319    0.760708    0.402521 Biso 1.000000  O     
 O27    1.0    0.760708    0.589388    0.902521 Biso 1.000000  O     
 O28    1.0    0.589387    0.658681    0.402520 Biso 1.000000  O     
 O29    1.0    0.658681    0.899292    0.902521 Biso 1.000000  O     
 O30    1.0    0.899292    0.070611    0.402521 Biso 1.000000  O     
 O31    1.0    0.064360    0.891607    0.116426 Biso 1.000000  O     
 O32    1.0    0.891607    0.657247    0.616426 Biso 1.000000  O     
 O33    1.0    0.657246    0.595639    0.116426 Biso 1.000000  O     
 O34    1.0    0.595640    0.768393    0.616425 Biso 1.000000  O     
 O35    1.0    0.768392    0.002753    0.116426 Biso 1.000000  O     
 O36    1.0    0.002753    0.064360    0.616426 Biso 1.000000  O     
 C1     1.0    0.017938    0.203651    0.000382 Biso 1.000000  C     
 C2     1.0    0.203651    0.015714    0.500382 Biso 1.000000  C     
 C3     1.0    0.015713    0.642062    0.000382 Biso 1.000000  C     
 C4     1.0    0.642062    0.456349    0.500382 Biso 1.000000  C     
 C5     1.0    0.456348    0.644286    0.000382 Biso 1.000000  C     
 C6     1.0    0.644286    0.017938    0.500382 Biso 1.000000  C     
 C7     1.0    0.357692    0.314329   -0.006033 Biso 1.000000  C     
 C8     1.0    0.314329    0.786638    0.493966 Biso 1.000000  C     
 C9     1.0    0.786637    0.302308   -0.006034 Biso 1.000000  C     
 C10    1.0    0.302308    0.345671    0.493966 Biso 1.000000  C     
 C11    1.0    0.345670    0.873363   -0.006034 Biso 1.000000  C     
 C12    1.0    0.873363    0.357693    0.493966 Biso 1.000000  C     
 C13    1.0    0.121217    0.979142    1.019322 Biso 1.000000  C     
 C14    1.0    0.979142    0.687925    0.519322 Biso 1.000000  C     
 C15    1.0    0.687925    0.538783    1.019322 Biso 1.000000  C     
 C16    1.0    0.538782    0.680858    0.519322 Biso 1.000000  C     
 C17    1.0    0.680858    0.972074    1.019322 Biso 1.000000  C     
 C18    1.0    0.972075    0.121217    0.519323 Biso 1.000000  C     
 H1     1.0    0.959938    0.103279   -0.009428 Biso 1.000000  H     
 H2     1.0    0.103279    0.973341    0.490571 Biso 1.000000  H     
 H3     1.0    0.973340    0.700061   -0.009428 Biso 1.000000  H     
 H4     1.0    0.700061    0.556721    0.490572 Biso 1.000000  H     
 H5     1.0    0.556720    0.686659   -0.009429 Biso 1.000000  H     
 H6     1.0    0.686659    0.959939    0.490571 Biso 1.000000  H     
 H7     1.0    0.320166    0.375297   -0.024242 Biso 1.000000  H     
 H8     1.0    0.375296    0.885130    0.475758 Biso 1.000000  H     
 H9     1.0    0.885129    0.339833   -0.024243 Biso 1.000000  H     
 H10    1.0    0.339833    0.284703    0.475758 Biso 1.000000  H     
 H11    1.0    0.284703    0.774870   -0.024242 Biso 1.000000  H     
 H12    1.0    0.774870    0.320167    0.475757 Biso 1.000000  H     
 H13    1.0    0.220185    0.040203    1.034869 Biso 1.000000  H     
 H14    1.0    0.040203    0.650018    0.534870 Biso 1.000000  H     
 H15    1.0    0.650018    0.439814    1.034871 Biso 1.000000  H     
 H16    1.0    0.439814    0.619798    0.534869 Biso 1.000000  H     
 H17    1.0    0.619798    0.009982    1.034870 Biso 1.000000  H     
 H18    1.0    0.009982    0.220185    0.534871 Biso 1.000000  H     
 H19    1.0    0.073538    0.453534    0.671659 Biso 1.000000  H     
 H20    1.0    0.441133    0.067643    0.206718 Biso 1.000000  H     
 H21    1.0    0.198412    0.436422    0.714840 Biso 1.000000  H     
 H22    1.0    0.588097    0.191097    0.187902 Biso 1.000000  H     
 H23    1.0    0.220502    0.576987    0.652842 Biso 1.000000  H     
 H24    1.0    0.463223    0.208208    0.144721 Biso 1.000000  H     
 H25    1.0    0.494126    0.187106    0.333169 Biso 1.000000  H     
 H26    1.0    0.160791    0.520437    0.833169 Biso 1.000000  H     
 H27    1.0    0.533268    0.104232    0.715266 Biso 1.000000  H     
 H28    1.0    0.255369    0.526000    0.188767 Biso 1.000000  H     
 H29    1.0    0.553245    0.244263    0.653451 Biso 1.000000  H     
 H30    1.0    0.129026    0.540756    0.144636 Biso 1.000000  H     
 H31    1.0    0.406928    0.118990    0.671135 Biso 1.000000  H     
 H32    1.0    0.109048    0.400727    0.206449 Biso 1.000000  H     
 H33    1.0    0.493139    0.186535    0.833456 Biso 1.000000  H     
 H34    1.0    0.159805    0.519865    0.333457 Biso 1.000000  H     
 H35    1.0    0.847479    0.920927    0.298669 Biso 1.000000  H     
 H36    1.0    0.760567    0.852924    0.806724 Biso 1.000000  H     
 H37    1.0    0.742106    0.769576    0.341796 Biso 1.000000  H     
 H38    1.0    0.810561    0.754232    0.868813 Biso 1.000000  H     
 H39    1.0    0.897472    0.822236    0.360756 Biso 1.000000  H     
 H40    1.0    0.915932    0.905581    0.825688 Biso 1.000000  H     
 H41    1.0    0.833033    0.806513    0.180386 Biso 1.000000  H     
 H42    1.0    0.833035    0.806513    0.680388 Biso 1.000000  H     
 N1     1.0    0.496663    0.163333    0.217248 Biso 1.000000  N     
 N2     1.0    0.163329    0.496664    0.717248 Biso 1.000000  N     
 N3     1.0    0.496665    0.163332    0.717472 Biso 1.000000  N     
 N4     1.0    0.163333    0.496666    0.217472 Biso 1.000000  N     
 N5     1.0    0.830003    0.830001    0.296328 Biso 1.000000  N     
 N6     1.0    0.830002    0.830003    0.796328 Biso 1.000000  N     
