_cell_length_a                         12.558309
_cell_length_b                         12.558312
_cell_length_c                         8.381599
_cell_angle_alpha                      89.999947
_cell_angle_beta                       90.000084
_cell_angle_gamma                      120.000061
_space_group_IT_number                 1
 loop_
 _space_group_symop_operation_xyz 
 'x, y, z' 
 loop_ 
 _atom_site_label 
 _atom_site_occupancy 
 _atom_site_fract_x 
 _atom_site_fract_y
 _atom_site_fract_z
 _atom_site_adp_type
 _atom_site_U_iso_or_equiv
 _atom_site_type_symbol
 Zn1    1.0    0.163768    0.162884    0.755386 Biso 1.000000  Zn    
 Zn2    1.0    0.162884    0.829117    0.255386 Biso 1.000000  Zn    
 Zn3    1.0    0.829117    0.496232    0.755386 Biso 1.000000  Zn    
 Zn4    1.0    0.496232    0.497115    0.255386 Biso 1.000000  Zn    
 Zn5    1.0    0.497115    0.830883    0.755386 Biso 1.000000  Zn    
 Zn6    1.0    0.830883    0.163768    0.255387 Biso 1.000000  Zn    
 O1     1.0    0.100314    0.258781    0.900173 Biso 1.000000  O     
 O2     1.0    0.258782    0.988467    0.400173 Biso 1.000000  O     
 O3     1.0    0.988467    0.559686    0.900173 Biso 1.000000  O     
 O4     1.0    0.559686    0.401218    0.400173 Biso 1.000000  O     
 O5     1.0    0.401218    0.671533    0.900173 Biso 1.000000  O     
 O6     1.0    0.671533    0.100314    0.400173 Biso 1.000000  O     
 O7     1.0    0.990314    0.257844    0.110805 Biso 1.000000  O     
 O8     1.0    0.257844    0.097531    0.610805 Biso 1.000000  O     
 O9     1.0    0.097530    0.669686    0.110805 Biso 1.000000  O     
 O10    1.0    0.669686    0.402156    0.610805 Biso 1.000000  O     
 O11    1.0    0.402156    0.562469    0.110805 Biso 1.000000  O     
 O12    1.0    0.562469    0.990314    0.610805 Biso 1.000000  O     
 O13    1.0    0.324835    0.227068    0.898913 Biso 1.000000  O     
 O14    1.0    0.227067    0.732232    0.398912 Biso 1.000000  O     
 O15    1.0    0.732232    0.335164    0.898912 Biso 1.000000  O     
 O16    1.0    0.335164    0.432932    0.398913 Biso 1.000000  O     
 O17    1.0    0.432932    0.927768    0.898913 Biso 1.000000  O     
 O18    1.0    0.927768    0.324835    0.398913 Biso 1.000000  O     
 O19    1.0    0.431872    0.336058    0.111143 Biso 1.000000  O     
 O20    1.0    0.336057    0.734185    0.611144 Biso 1.000000  O     
 O21    1.0    0.734186    0.228128    0.111144 Biso 1.000000  O     
 O22    1.0    0.228128    0.323942    0.611144 Biso 1.000000  O     
 O23    1.0    0.323942    0.925814    0.111144 Biso 1.000000  O     
 O24    1.0    0.925814    0.431872    0.611143 Biso 1.000000  O     
 O25    1.0    0.068267    0.001857    0.899166 Biso 1.000000  O     
 O26    1.0    0.001857    0.763589    0.399166 Biso 1.000000  O     
 O27    1.0    0.763590    0.591733    0.899166 Biso 1.000000  O     
 O28    1.0    0.591732    0.658143    0.399165 Biso 1.000000  O     
 O29    1.0    0.658143    0.896410    0.899166 Biso 1.000000  O     
 O30    1.0    0.896410    0.068267    0.399166 Biso 1.000000  O     
 O31    1.0    0.066704    0.894489    0.113071 Biso 1.000000  O     
 O32    1.0    0.894489    0.657785    0.613071 Biso 1.000000  O     
 O33    1.0    0.657784    0.593295    0.113071 Biso 1.000000  O     
 O34    1.0    0.593295    0.765511    0.613070 Biso 1.000000  O     
 O35    1.0    0.765511    0.002215    0.113071 Biso 1.000000  O     
 O36    1.0    0.002215    0.066705    0.613071 Biso 1.000000  O     
 C1     1.0    0.017104    0.203651    0.003846 Biso 1.000000  C     
 C2     1.0    0.203651    0.016548    0.503846 Biso 1.000000  C     
 C3     1.0    0.016547    0.642896    0.003846 Biso 1.000000  C     
 C4     1.0    0.642896    0.456349    0.503846 Biso 1.000000  C     
 C5     1.0    0.456348    0.643452    0.003846 Biso 1.000000  C     
 C6     1.0    0.643452    0.017104    0.503846 Biso 1.000000  C     
 C7     1.0    0.353184    0.309821    0.002242 Biso 1.000000  C     
 C8     1.0    0.309821    0.786638    0.502241 Biso 1.000000  C     
 C9     1.0    0.786637    0.306816    0.002241 Biso 1.000000  C     
 C10    1.0    0.306816    0.350179    0.502241 Biso 1.000000  C     
 C11    1.0    0.350179    0.873363    0.002242 Biso 1.000000  C     
 C12    1.0    0.873363    0.353184    0.502242 Biso 1.000000  C     
 C13    1.0    0.121217    0.976492    1.008580 Biso 1.000000  C     
 C14    1.0    0.976491    0.685275    0.508581 Biso 1.000000  C     
 C15    1.0    0.685275    0.538783    1.008581 Biso 1.000000  C     
 C16    1.0    0.538782    0.683508    0.508581 Biso 1.000000  C     
 C17    1.0    0.683508    0.974725    1.008581 Biso 1.000000  C     
 C18    1.0    0.974725    0.121217    0.508581 Biso 1.000000  C     
 H1     1.0    0.964964    0.103279    0.001393 Biso 1.000000  H     
 H2     1.0    0.103279    0.968315    0.501392 Biso 1.000000  H     
 H3     1.0    0.968315    0.695035    0.001393 Biso 1.000000  H     
 H4     1.0    0.695035    0.556721    0.501393 Biso 1.000000  H     
 H5     1.0    0.556720    0.691685    0.001392 Biso 1.000000  H     
 H6     1.0    0.691685    0.964964    0.501392 Biso 1.000000  H     
 H7     1.0    0.306867    0.361998   -0.002311 Biso 1.000000  H     
 H8     1.0    0.361997    0.885130    0.497690 Biso 1.000000  H     
 H9     1.0    0.885129    0.353132   -0.002311 Biso 1.000000  H     
 H10    1.0    0.353132    0.298002    0.497689 Biso 1.000000  H     
 H11    1.0    0.298002    0.774870   -0.002310 Biso 1.000000  H     
 H12    1.0    0.774870    0.306868    0.497689 Biso 1.000000  H     
 H13    1.0    0.220185    0.028870    1.012467 Biso 1.000000  H     
 H14    1.0    0.028870    0.638685    0.512467 Biso 1.000000  H     
 H15    1.0    0.638685    0.439814    1.012468 Biso 1.000000  H     
 H16    1.0    0.439814    0.631130    0.512467 Biso 1.000000  H     
 H17    1.0    0.631130    0.021315    1.012467 Biso 1.000000  H     
 H18    1.0    0.021315    0.220185    0.512468 Biso 1.000000  H     
 H19    1.0    0.090332    0.411548    0.708307 Biso 1.000000  H     
 H20    1.0    0.459247    0.083819    0.316211 Biso 1.000000  H     
 H21    1.0    0.210356    0.485030    0.841209 Biso 1.000000  H     
 H22    1.0    0.592550    0.213973    0.258302 Biso 1.000000  H     
 H23    1.0    0.223635    0.541701    0.650397 Biso 1.000000  H     
 H24    1.0    0.472526    0.140490    0.125400 Biso 1.000000  H     
 H25    1.0    0.461265    0.216666    0.283143 Biso 1.000000  H     
 H26    1.0    0.127932    0.549998    0.783144 Biso 1.000000  H     
 H27    1.0    0.543228    0.151628    0.842204 Biso 1.000000  H     
 H28    1.0    0.259129    0.548609    0.260648 Biso 1.000000  H     
 H29    1.0    0.557966    0.210252    0.651955 Biso 1.000000  H     
 H30    1.0    0.140909    0.474916    0.124825 Biso 1.000000  H     
 H31    1.0    0.425011    0.077938    0.706379 Biso 1.000000  H     
 H32    1.0    0.126170    0.416292    0.315069 Biso 1.000000  H     
 H33    1.0    0.459383    0.215042    0.783387 Biso 1.000000  H     
 H34    1.0    0.126050    0.548374    0.283390 Biso 1.000000  H     
 H35    1.0    0.832220    0.884924    0.169547 Biso 1.000000  H     
 H36    1.0    0.753076    0.808951    0.694339 Biso 1.000000  H     
 H37    1.0    0.739123    0.770973    0.302275 Biso 1.000000  H     
 H38    1.0    0.804321    0.808972    0.885429 Biso 1.000000  H     
 H39    1.0    0.883465    0.884945    0.360634 Biso 1.000000  H     
 H40    1.0    0.897417    0.922922    0.752702 Biso 1.000000  H     
 H41    1.0    0.866339    0.777480    0.227658 Biso 1.000000  H     
 H42    1.0    0.866342    0.777482    0.727662 Biso 1.000000  H     
 N1     1.0    0.496665    0.163332    0.245478 Biso 1.000000  N     
 N2     1.0    0.163331    0.496664    0.745478 Biso 1.000000  N     
 N3     1.0    0.496666    0.163330    0.745702 Biso 1.000000  N     
 N4     1.0    0.163334    0.496664    0.245702 Biso 1.000000  N     
 N5     1.0    0.830001    0.830002    0.265332 Biso 1.000000  N     
 N6     1.0    0.830001    0.830003    0.765332 Biso 1.000000  N     
