_cell_length_a                         12.558309
_cell_length_b                         12.558312
_cell_length_c                         8.381599
_cell_angle_alpha                      89.999947
_cell_angle_beta                       90.000084
_cell_angle_gamma                      120.000061
_space_group_IT_number                 1
 loop_
 _space_group_symop_operation_xyz 
 'x, y, z' 
 loop_ 
 _atom_site_label 
 _atom_site_occupancy 
 _atom_site_fract_x 
 _atom_site_fract_y
 _atom_site_fract_z
 _atom_site_adp_type
 _atom_site_U_iso_or_equiv
 _atom_site_type_symbol
 Zn1    1.0    0.165534    0.161118    0.756930 Biso 1.000000  Zn    
 Zn2    1.0    0.161118    0.825584    0.256930 Biso 1.000000  Zn    
 Zn3    1.0    0.825584    0.494466    0.756931 Biso 1.000000  Zn    
 Zn4    1.0    0.494465    0.498882    0.256930 Biso 1.000000  Zn    
 Zn5    1.0    0.498881    0.834416    0.756931 Biso 1.000000  Zn    
 Zn6    1.0    0.834416    0.165534    0.256931 Biso 1.000000  Zn    
 O1     1.0    0.105882    0.260656    0.902130 Biso 1.000000  O     
 O2     1.0    0.260656    0.984774    0.402130 Biso 1.000000  O     
 O3     1.0    0.984774    0.554118    0.902130 Biso 1.000000  O     
 O4     1.0    0.554118    0.399344    0.402130 Biso 1.000000  O     
 O5     1.0    0.399344    0.675226    0.902130 Biso 1.000000  O     
 O6     1.0    0.675226    0.105882    0.402130 Biso 1.000000  O     
 O7     1.0    0.994007    0.255970    0.112762 Biso 1.000000  O     
 O8     1.0    0.255969    0.091963    0.612762 Biso 1.000000  O     
 O9     1.0    0.091962    0.665993    0.112762 Biso 1.000000  O     
 O10    1.0    0.665993    0.404030    0.612762 Biso 1.000000  O     
 O11    1.0    0.404030    0.568037    0.112762 Biso 1.000000  O     
 O12    1.0    0.568037    0.994007    0.612762 Biso 1.000000  O     
 O13    1.0    0.326621    0.224948    0.899026 Biso 1.000000  O     
 O14    1.0    0.224947    0.728326    0.399026 Biso 1.000000  O     
 O15    1.0    0.728326    0.333378    0.899026 Biso 1.000000  O     
 O16    1.0    0.333378    0.435052    0.399027 Biso 1.000000  O     
 O17    1.0    0.435052    0.931674    0.899027 Biso 1.000000  O     
 O18    1.0    0.931674    0.326622    0.399027 Biso 1.000000  O     
 O19    1.0    0.429752    0.337844    0.111257 Biso 1.000000  O     
 O20    1.0    0.337843    0.738091    0.611258 Biso 1.000000  O     
 O21    1.0    0.738092    0.230248    0.111258 Biso 1.000000  O     
 O22    1.0    0.230248    0.322156    0.611257 Biso 1.000000  O     
 O23    1.0    0.322155    0.921908    0.111258 Biso 1.000000  O     
 O24    1.0    0.921908    0.429752    0.611257 Biso 1.000000  O     
 O25    1.0    0.071393    0.001140    0.903639 Biso 1.000000  O     
 O26    1.0    0.001140    0.759747    0.403639 Biso 1.000000  O     
 O27    1.0    0.759747    0.588607    0.903639 Biso 1.000000  O     
 O28    1.0    0.588606    0.658860    0.403638 Biso 1.000000  O     
 O29    1.0    0.658860    0.900253    0.903639 Biso 1.000000  O     
 O30    1.0    0.900253    0.071393    0.403639 Biso 1.000000  O     
 O31    1.0    0.063578    0.890646    0.117544 Biso 1.000000  O     
 O32    1.0    0.890646    0.657068    0.617544 Biso 1.000000  O     
 O33    1.0    0.657067    0.596421    0.117544 Biso 1.000000  O     
 O34    1.0    0.596421    0.769354    0.617543 Biso 1.000000  O     
 O35    1.0    0.769353    0.002932    0.117544 Biso 1.000000  O     
 O36    1.0    0.002932    0.063579    0.617544 Biso 1.000000  O     
 C1     1.0    0.018216    0.203651   -0.000772 Biso 1.000000  C     
 C2     1.0    0.203651    0.015436    0.499228 Biso 1.000000  C     
 C3     1.0    0.015435    0.641784   -0.000772 Biso 1.000000  C     
 C4     1.0    0.641784    0.456349    0.499228 Biso 1.000000  C     
 C5     1.0    0.456348    0.644564   -0.000772 Biso 1.000000  C     
 C6     1.0    0.644564    0.018216    0.499228 Biso 1.000000  C     
 C7     1.0    0.359195    0.315832   -0.008792 Biso 1.000000  C     
 C8     1.0    0.315832    0.786638    0.491207 Biso 1.000000  C     
 C9     1.0    0.786637    0.300805   -0.008793 Biso 1.000000  C     
 C10    1.0    0.300805    0.344168    0.491207 Biso 1.000000  C     
 C11    1.0    0.344167    0.873363   -0.008792 Biso 1.000000  C     
 C12    1.0    0.873363    0.359196    0.491208 Biso 1.000000  C     
 C13    1.0    0.121217    0.980026    1.022903 Biso 1.000000  C     
 C14    1.0    0.980025    0.688809    0.522903 Biso 1.000000  C     
 C15    1.0    0.688808    0.538783    1.022903 Biso 1.000000  C     
 C16    1.0    0.538782    0.679975    0.522903 Biso 1.000000  C     
 C17    1.0    0.679974    0.971191    1.022903 Biso 1.000000  C     
 C18    1.0    0.971191    0.121217    0.522904 Biso 1.000000  C     
 H1     1.0    0.958263    0.103279   -0.013035 Biso 1.000000  H     
 H2     1.0    0.103279    0.975016    0.486964 Biso 1.000000  H     
 H3     1.0    0.975015    0.701736   -0.013035 Biso 1.000000  H     
 H4     1.0    0.701736    0.556721    0.486965 Biso 1.000000  H     
 H5     1.0    0.556720    0.684984   -0.013036 Biso 1.000000  H     
 H6     1.0    0.684984    0.958264    0.486964 Biso 1.000000  H     
 H7     1.0    0.324599    0.379730   -0.031553 Biso 1.000000  H     
 H8     1.0    0.379729    0.885130    0.468447 Biso 1.000000  H     
 H9     1.0    0.885129    0.335400   -0.031554 Biso 1.000000  H     
 H10    1.0    0.335400    0.280270    0.468447 Biso 1.000000  H     
 H11    1.0    0.280270    0.774870   -0.031553 Biso 1.000000  H     
 H12    1.0    0.774870    0.324600    0.468446 Biso 1.000000  H     
 H13    1.0    0.220185    0.043980    1.042337 Biso 1.000000  H     
 H14    1.0    0.043980    0.653795    0.542337 Biso 1.000000  H     
 H15    1.0    0.653795    0.439814    1.042338 Biso 1.000000  H     
 H16    1.0    0.439814    0.616020    0.542337 Biso 1.000000  H     
 H17    1.0    0.616020    0.006205    1.042337 Biso 1.000000  H     
 H18    1.0    0.006205    0.220185    0.542338 Biso 1.000000  H     
 H19    1.0    0.074462    0.471245    0.668443 Biso 1.000000  H     
 H20    1.0    0.433217    0.074466    0.168443 Biso 1.000000  H     
 H21    1.0    0.188750    0.433219    0.668441 Biso 1.000000  H     
 H22    1.0    0.585530    0.188755    0.168442 Biso 1.000000  H     
 H23    1.0    0.226776    0.585533    0.668442 Biso 1.000000  H     
 H24    1.0    0.471242    0.226780    0.168444 Biso 1.000000  H     
 H25    1.0    0.496664    0.163334    0.329725 Biso 1.000000  H     
 H26    1.0    0.163329    0.496665    0.829725 Biso 1.000000  H     
 H27    1.0    0.523805    0.101060    0.668609 Biso 1.000000  H     
 H28    1.0    0.252747    0.523802    0.168609 Biso 1.000000  H     
 H29    1.0    0.558944    0.252743    0.668609 Biso 1.000000  H     
 H30    1.0    0.136204    0.558939    0.168609 Biso 1.000000  H     
 H31    1.0    0.407265    0.136200    0.668610 Biso 1.000000  H     
 H32    1.0    0.101064    0.407259    0.168608 Biso 1.000000  H     
 H33    1.0    0.496670    0.163336    0.830015 Biso 1.000000  H     
 H34    1.0    0.163335    0.496666    0.330015 Biso 1.000000  H     
 H35    1.0    0.857304    0.919400    0.345998 Biso 1.000000  H     
 H36    1.0    0.767904    0.857304    0.845998 Biso 1.000000  H     
 H37    1.0    0.740599    0.767904    0.345999 Biso 1.000000  H     
 H38    1.0    0.802695    0.740600    0.845998 Biso 1.000000  H     
 H39    1.0    0.892094    0.802697    0.345997 Biso 1.000000  H     
 H40    1.0    0.919398    0.892094    0.845998 Biso 1.000000  H     
 H41    1.0    0.829999    0.830000    0.184752 Biso 1.000000  H     
 H42    1.0    0.830000    0.830000    0.684752 Biso 1.000000  H     
 N1     1.0    0.496663    0.163334    0.207839 Biso 1.000000  N     
 N2     1.0    0.163328    0.496665    0.707839 Biso 1.000000  N     
 N3     1.0    0.496665    0.163333    0.708063 Biso 1.000000  N     
 N4     1.0    0.163333    0.496667    0.208063 Biso 1.000000  N     
 N5     1.0    0.830003    0.830000    0.306659 Biso 1.000000  N     
 N6     1.0    0.830002    0.830002    0.806659 Biso 1.000000  N     
