_cell_length_a                         12.558309
_cell_length_b                         12.558312
_cell_length_c                         8.381599
_cell_angle_alpha                      89.999947
_cell_angle_beta                       90.000084
_cell_angle_gamma                      120.000061
_space_group_IT_number                 1
 loop_
 _space_group_symop_operation_xyz 
 'x, y, z' 
 loop_ 
 _atom_site_label 
 _atom_site_occupancy 
 _atom_site_fract_x 
 _atom_site_fract_y
 _atom_site_fract_z
 _atom_site_adp_type
 _atom_site_U_iso_or_equiv
 _atom_site_type_symbol
 Zn1    1.0    0.163326    0.163326    0.755000 Biso 1.000000  Zn    
 Zn2    1.0    0.163326    0.830000    0.254999 Biso 1.000000  Zn    
 Zn3    1.0    0.830000    0.496673    0.755000 Biso 1.000000  Zn    
 Zn4    1.0    0.496673    0.496673    0.255000 Biso 1.000000  Zn    
 Zn5    1.0    0.496673    0.830000    0.755000 Biso 1.000000  Zn    
 Zn6    1.0    0.830000    0.163326    0.255001 Biso 1.000000  Zn    
 O1     1.0    0.098922    0.258313    0.899684 Biso 1.000000  O     
 O2     1.0    0.258313    0.989391    0.399684 Biso 1.000000  O     
 O3     1.0    0.989391    0.561078    0.899684 Biso 1.000000  O     
 O4     1.0    0.561078    0.401687    0.399684 Biso 1.000000  O     
 O5     1.0    0.401687    0.670609    0.899684 Biso 1.000000  O     
 O6     1.0    0.670609    0.098922    0.399684 Biso 1.000000  O     
 O7     1.0    0.989391    0.258313    0.110316 Biso 1.000000  O     
 O8     1.0    0.258313    0.098922    0.610316 Biso 1.000000  O     
 O9     1.0    0.098922    0.670609    0.110316 Biso 1.000000  O     
 O10    1.0    0.670609    0.401687    0.610316 Biso 1.000000  O     
 O11    1.0    0.401687    0.561078    0.110316 Biso 1.000000  O     
 O12    1.0    0.561078    0.989391    0.610316 Biso 1.000000  O     
 O13    1.0    0.324388    0.227598    0.898884 Biso 1.000000  O     
 O14    1.0    0.227598    0.733209    0.398884 Biso 1.000000  O     
 O15    1.0    0.733209    0.335611    0.898884 Biso 1.000000  O     
 O16    1.0    0.335611    0.432402    0.398885 Biso 1.000000  O     
 O17    1.0    0.432402    0.926791    0.898885 Biso 1.000000  O     
 O18    1.0    0.926791    0.324389    0.398884 Biso 1.000000  O     
 O19    1.0    0.432402    0.335611    0.111115 Biso 1.000000  O     
 O20    1.0    0.335611    0.733209    0.611116 Biso 1.000000  O     
 O21    1.0    0.733209    0.227598    0.111116 Biso 1.000000  O     
 O22    1.0    0.227598    0.324388    0.611116 Biso 1.000000  O     
 O23    1.0    0.324389    0.926791    0.111116 Biso 1.000000  O     
 O24    1.0    0.926791    0.432402    0.611115 Biso 1.000000  O     
 O25    1.0    0.067486    0.002036    0.898047 Biso 1.000000  O     
 O26    1.0    0.002036    0.764550    0.398047 Biso 1.000000  O     
 O27    1.0    0.764550    0.592514    0.898048 Biso 1.000000  O     
 O28    1.0    0.592513    0.657963    0.398047 Biso 1.000000  O     
 O29    1.0    0.657964    0.895450    0.898047 Biso 1.000000  O     
 O30    1.0    0.895450    0.067486    0.398047 Biso 1.000000  O     
 O31    1.0    0.067486    0.895450    0.111952 Biso 1.000000  O     
 O32    1.0    0.895450    0.657964    0.611953 Biso 1.000000  O     
 O33    1.0    0.657963    0.592513    0.111953 Biso 1.000000  O     
 O34    1.0    0.592514    0.764550    0.611952 Biso 1.000000  O     
 O35    1.0    0.764550    0.002036    0.111952 Biso 1.000000  O     
 O36    1.0    0.002036    0.067486    0.611953 Biso 1.000000  O     
 C1     1.0    0.016826    0.203651    0.005000 Biso 1.000000  C     
 C2     1.0    0.203651    0.016826    0.505000 Biso 1.000000  C     
 C3     1.0    0.016826    0.643174    0.005000 Biso 1.000000  C     
 C4     1.0    0.643174    0.456348    0.505000 Biso 1.000000  C     
 C5     1.0    0.456348    0.643174    0.005000 Biso 1.000000  C     
 C6     1.0    0.643174    0.016826    0.505000 Biso 1.000000  C     
 C7     1.0    0.351681    0.308318    0.005001 Biso 1.000000  C     
 C8     1.0    0.308318    0.786637    0.505000 Biso 1.000000  C     
 C9     1.0    0.786637    0.308318    0.005000 Biso 1.000000  C     
 C10    1.0    0.308318    0.351681    0.505000 Biso 1.000000  C     
 C11    1.0    0.351681    0.873363    0.005000 Biso 1.000000  C     
 C12    1.0    0.873363    0.351681    0.505000 Biso 1.000000  C     
 C13    1.0    0.121217    0.975608    1.005000 Biso 1.000000  C     
 C14    1.0    0.975608    0.684392    0.505000 Biso 1.000000  C     
 C15    1.0    0.684392    0.538782    1.005000 Biso 1.000000  C     
 C16    1.0    0.538782    0.684392    0.505000 Biso 1.000000  C     
 C17    1.0    0.684392    0.975608    1.005000 Biso 1.000000  C     
 C18    1.0    0.975608    0.121217    0.505000 Biso 1.000000  C     
 H1     1.0    0.966639    0.103279    0.005001 Biso 1.000000  H     
 H2     1.0    0.103279    0.966639    0.505000 Biso 1.000000  H     
 H3     1.0    0.966639    0.693360    0.005001 Biso 1.000000  H     
 H4     1.0    0.693360    0.556720    0.505000 Biso 1.000000  H     
 H5     1.0    0.556720    0.693360    0.004999 Biso 1.000000  H     
 H6     1.0    0.693360    0.966639    0.505000 Biso 1.000000  H     
 H7     1.0    0.302435    0.357565    0.005000 Biso 1.000000  H     
 H8     1.0    0.357564    0.885130    0.505000 Biso 1.000000  H     
 H9     1.0    0.885130    0.357564    0.005000 Biso 1.000000  H     
 H10    1.0    0.357565    0.302435    0.505000 Biso 1.000000  H     
 H11    1.0    0.302435    0.774870    0.005000 Biso 1.000000  H     
 H12    1.0    0.774870    0.302435    0.504999 Biso 1.000000  H     
 H13    1.0    0.220185    0.025092    1.005000 Biso 1.000000  H     
 H14    1.0    0.025092    0.634907    0.505000 Biso 1.000000  H     
 H15    1.0    0.634907    0.439814    1.005000 Biso 1.000000  H     
 H16    1.0    0.439814    0.634907    0.505000 Biso 1.000000  H     
 H17    1.0    0.634907    0.025093    1.005000 Biso 1.000000  H     
 H18    1.0    0.025093    0.220185    0.505000 Biso 1.000000  H     
 H19    1.0    0.100530    0.404354    0.728604 Biso 1.000000  H     
 H20    1.0    0.457455    0.094353    0.342062 Biso 1.000000  H     
 H21    1.0    0.201853    0.504567    0.868347 Biso 1.000000  H     
 H22    1.0    0.589327    0.224783    0.281173 Biso 1.000000  H     
 H23    1.0    0.232403    0.534783    0.667715 Biso 1.000000  H     
 H24    1.0    0.488005    0.124570    0.141431 Biso 1.000000  H     
 H25    1.0    0.450477    0.211072    0.254888 Biso 1.000000  H     
 H26    1.0    0.117143    0.544405    0.754889 Biso 1.000000  H     
 H27    1.0    0.534051    0.170553    0.869400 Biso 1.000000  H     
 H28    1.0    0.255446    0.559219    0.283647 Biso 1.000000  H     
 H29    1.0    0.566850    0.203715    0.669361 Biso 1.000000  H     
 H30    1.0    0.156864    0.459547    0.140834 Biso 1.000000  H     
 H31    1.0    0.435473    0.070884    0.726585 Biso 1.000000  H     
 H32    1.0    0.124066    0.426385    0.340868 Biso 1.000000  H     
 H33    1.0    0.448905    0.209548    0.755112 Biso 1.000000  H     
 H34    1.0    0.115571    0.542881    0.255115 Biso 1.000000  H     
 H35    1.0    0.838485    0.868805    0.141503 Biso 1.000000  H     
 H36    1.0    0.761064    0.791383    0.667571 Biso 1.000000  H     
 H37    1.0    0.737415    0.767735    0.281062 Biso 1.000000  H     
 H38    1.0    0.791194    0.821513    0.868495 Biso 1.000000  H     
 H39    1.0    0.868615    0.898933    0.342425 Biso 1.000000  H     
 H40    1.0    0.892262    0.922581    0.728938 Biso 1.000000  H     
 H41    1.0    0.876972    0.783024    0.254997 Biso 1.000000  H     
 H42    1.0    0.876974    0.783027    0.755002 Biso 1.000000  H     
 N1     1.0    0.496666    0.163332    0.254888 Biso 1.000000  N     
 N2     1.0    0.163332    0.496664    0.754888 Biso 1.000000  N     
 N3     1.0    0.496666    0.163330    0.755112 Biso 1.000000  N     
 N4     1.0    0.163334    0.496664    0.255112 Biso 1.000000  N     
 N5     1.0    0.830000    0.830003    0.255000 Biso 1.000000  N     
 N6     1.0    0.830001    0.830003    0.755000 Biso 1.000000  N     
