_cell_length_a     8.6512
_cell_length_b    11.4883
_cell_length_c     7.7542
_cell_angle_alpha 90.0
_cell_angle_beta 90.0
_cell_angle_gamma 90.0
_space_group_IT_number                 1
 loop_
 _space_group_symop_operation_xyz 
 'x, y, z' 
 loop_ 
 _atom_site_label 
 _atom_site_occupancy 
 _atom_site_fract_x 
 _atom_site_fract_y
 _atom_site_fract_z
 _atom_site_adp_type
 _atom_site_U_iso_or_equiv
 _atom_site_type_symbol
 Zn1    1.0    0.277104    0.500049    0.312259 Biso 1.000000  Zn    
 Zn2    1.0    0.322496    0.000049    0.311741 Biso 1.000000  Zn    
 Zn3    1.0    0.777104    0.500049    0.811741 Biso 1.000000  Zn    
 Zn4    1.0    0.822496    0.000049    0.812259 Biso 1.000000  Zn    
 O1     1.0    0.248435    0.344438    0.164940 Biso 1.000000  O     
 O2     1.0    0.351165    0.844438    0.459060 Biso 1.000000  O     
 O3     1.0    0.748435    0.344438    0.959061 Biso 1.000000  O     
 O4     1.0    0.851165    0.844438    0.664940 Biso 1.000000  O     
 O5     1.0    0.282150    0.154408    0.168977 Biso 1.000000  O     
 O6     1.0    0.317450    0.654408    0.455023 Biso 1.000000  O     
 O7     1.0    0.782150    0.154408    0.955023 Biso 1.000000  O     
 O8     1.0    0.817450    0.654408    0.668977 Biso 1.000000  O     
 O9     1.0    0.369008    0.572152    0.081003 Biso 1.000000  O     
 O10    1.0    0.230592    0.072152    0.542997 Biso 1.000000  O     
 O11    1.0    0.869008    0.572152    0.042997 Biso 1.000000  O     
 O12    1.0    0.730592    0.072152    0.581003 Biso 1.000000  O     
 O13    1.0    0.559982    0.572006    0.886380 Biso 1.000000  O     
 O14    1.0    0.039618    0.072006    0.737620 Biso 1.000000  O     
 O15    1.0    0.059982    0.572006    0.237620 Biso 1.000000  O     
 O16    1.0    0.539618    0.072006    0.386380 Biso 1.000000  O     
 O17    1.0    0.495869    0.430864    0.384385 Biso 1.000000  O     
 O18    1.0    0.103731    0.930864    0.239615 Biso 1.000000  O     
 O19    1.0    0.995869    0.430864    0.739615 Biso 1.000000  O     
 O20    1.0    0.603731    0.930864    0.884385 Biso 1.000000  O     
 O21    1.0    0.686545    0.428668    0.579033 Biso 1.000000  O     
 O22    1.0    0.913055    0.928668    0.044967 Biso 1.000000  O     
 O23    1.0    0.186545    0.428668    0.544967 Biso 1.000000  O     
 O24    1.0    0.413055    0.928668    0.079033 Biso 1.000000  O     
 C1     1.0    0.262647    0.249677    0.244954 Biso 1.000000  C     
 C2     1.0    0.336953    0.749677    0.379046 Biso 1.000000  C     
 C3     1.0    0.762647    0.249677    0.879046 Biso 1.000000  C     
 C4     1.0    0.836953    0.749677    0.744954 Biso 1.000000  C     
 C5     1.0    0.494322    0.532623    0.020536 Biso 1.000000  C     
 C6     1.0    0.105278    0.032623    0.603464 Biso 1.000000  C     
 C7     1.0    0.994322    0.532623    0.103464 Biso 1.000000  C     
 C8     1.0    0.605278    0.032623    0.520536 Biso 1.000000  C     
 C9     1.0    0.552759    0.459194    0.528278 Biso 1.000000  C     
 C10    1.0    0.046841    0.959194    0.095722 Biso 1.000000  C     
 C11    1.0    0.052759    0.459194    0.595722 Biso 1.000000  C     
 C12    1.0    0.546841    0.959194    0.028278 Biso 1.000000  C     
 H1     1.0    0.257650    0.250908    0.386963 Biso 1.000000  H     
 H2     1.0    0.341950    0.750908    0.237037 Biso 1.000000  H     
 H3     1.0    0.757650    0.250908    0.737037 Biso 1.000000  H     
 H4     1.0    0.841950    0.750908    0.886963 Biso 1.000000  H     
 H5     1.0    0.549311    0.460450    0.087249 Biso 1.000000  H     
 H6     1.0    0.050289    0.960450    0.536751 Biso 1.000000  H     
 H7     1.0    0.049311    0.460450    0.036751 Biso 1.000000  H     
 H8     1.0    0.550289    0.960450    0.587249 Biso 1.000000  H     
 H9     1.0    0.484264    0.513458    0.614086 Biso 1.000000  H     
 H10    1.0    0.115336    0.013458    0.009914 Biso 1.000000  H     
 H11    1.0    0.984264    0.513458    0.509914 Biso 1.000000  H     
 H12    1.0    0.615336    0.013458    0.114086 Biso 1.000000  H     
 H13    1.0    0.729911    0.355170    0.318120 Biso 1.000000  H     
 H14    1.0    0.869689    0.855170    0.305880 Biso 1.000000  H     
 H15    1.0    0.229915    0.355166    0.805716 Biso 1.000000  H     
 H16    1.0    0.369685    0.855166    0.818284 Biso 1.000000  H     
 H17    1.0    0.729912    0.255314    0.153104 Biso 1.000000  H     
 H18    1.0    0.869688    0.755314    0.470896 Biso 1.000000  H     
 H19    1.0    0.229932    0.255434    0.970895 Biso 1.000000  H     
 H20    1.0    0.369668    0.755434    0.653105 Biso 1.000000  H     
 H21    1.0    0.655080    0.220524    0.351811 Biso 1.000000  H     
 H22    1.0    0.944520    0.720524    0.272189 Biso 1.000000  H     
 H23    1.0    0.155074    0.220497    0.772257 Biso 1.000000  H     
 H24    1.0    0.444526    0.720497    0.851743 Biso 1.000000  H     
 H25    1.0    0.887193    0.211475    0.465154 Biso 1.000000  H     
 H26    1.0    0.712407    0.711475    0.158846 Biso 1.000000  H     
 H27    1.0    0.387173    0.211358    0.658893 Biso 1.000000  H     
 H28    1.0    0.212427    0.711358    0.965107 Biso 1.000000  H     
 H29    1.0    0.903620    0.146610    0.275631 Biso 1.000000  H     
 H30    1.0    0.695980    0.646610    0.348369 Biso 1.000000  H     
 H31    1.0    0.403620    0.146634    0.848519 Biso 1.000000  H     
 H32    1.0    0.195980    0.646634    0.775480 Biso 1.000000  H     
 N1     1.0    0.894903    0.226565    0.334558 Biso 1.000000  N     
 N2     1.0    0.704697    0.726565    0.289442 Biso 1.000000  N     
 N3     1.0    0.394899    0.226546    0.789463 Biso 1.000000  N     
 N4     1.0    0.204701    0.726546    0.834537 Biso 1.000000  N     
 N5     1.0    0.741959    0.267006    0.286976 Biso 1.000000  N     
 N6     1.0    0.857641    0.767006    0.337024 Biso 1.000000  N     
 N7     1.0    0.241963    0.267026    0.837003 Biso 1.000000  N     
 N8     1.0    0.357637    0.767026    0.786997 Biso 1.000000  N     
