_cell_length_a     8.6512
_cell_length_b    11.4883
_cell_length_c     7.7542
_cell_angle_alpha 90.0
_cell_angle_beta 90.0
_cell_angle_gamma 90.0
_space_group_IT_number                 1
 loop_
 _space_group_symop_operation_xyz 
 'x, y, z' 
 loop_ 
 _atom_site_label 
 _atom_site_occupancy 
 _atom_site_fract_x 
 _atom_site_fract_y
 _atom_site_fract_z
 _atom_site_adp_type
 _atom_site_U_iso_or_equiv
 _atom_site_type_symbol
 Zn1    1.0    0.280965    0.499984    0.311914 Biso 1.000000  Zn    
 Zn2    1.0    0.265835   -0.000016    0.312086 Biso 1.000000  Zn    
 Zn3    1.0    0.780965    0.499984    0.812086 Biso 1.000000  Zn    
 Zn4    1.0    0.765835   -0.000016    0.811914 Biso 1.000000  Zn    
 O1     1.0    0.244512    0.345207    0.167631 Biso 1.000000  O     
 O2     1.0    0.302288    0.845207    0.456369 Biso 1.000000  O     
 O3     1.0    0.744512    0.345207    0.956369 Biso 1.000000  O     
 O4     1.0    0.802288    0.845207    0.667631 Biso 1.000000  O     
 O5     1.0    0.233273    0.155177    0.166286 Biso 1.000000  O     
 O6     1.0    0.313527    0.655177    0.457714 Biso 1.000000  O     
 O7     1.0    0.733273    0.155177    0.957714 Biso 1.000000  O     
 O8     1.0    0.813527    0.655177    0.666285 Biso 1.000000  O     
 O9     1.0    0.371973    0.571605    0.079690 Biso 1.000000  O     
 O10    1.0    0.174827    0.071605    0.544310 Biso 1.000000  O     
 O11    1.0    0.871973    0.571605    0.044310 Biso 1.000000  O     
 O12    1.0    0.674827    0.071605    0.579690 Biso 1.000000  O     
 O13    1.0    0.562748    0.570093    0.885050 Biso 1.000000  O     
 O14    1.0   -0.015948    0.070093    0.738950 Biso 1.000000  O     
 O15    1.0    0.062748    0.570093    0.238950 Biso 1.000000  O     
 O16    1.0    0.484052    0.070093    0.385050 Biso 1.000000  O     
 O17    1.0    0.498635    0.428951    0.385715 Biso 1.000000  O     
 O18    1.0    0.048165    0.928951    0.238285 Biso 1.000000  O     
 O19    1.0    0.998635    0.428951    0.738285 Biso 1.000000  O     
 O20    1.0    0.548165    0.928951    0.885715 Biso 1.000000  O     
 O21    1.0    0.689510    0.428121    0.580346 Biso 1.000000  O     
 O22    1.0    0.857290    0.928121    0.043654 Biso 1.000000  O     
 O23    1.0    0.189510    0.428121    0.543654 Biso 1.000000  O     
 O24    1.0    0.357290    0.928121    0.080346 Biso 1.000000  O     
 C1     1.0    0.236247    0.250108    0.244954 Biso 1.000000  C     
 C2     1.0    0.310553    0.750108    0.379046 Biso 1.000000  C     
 C3     1.0    0.736247    0.250108    0.879046 Biso 1.000000  C     
 C4     1.0    0.810553    0.750108    0.744954 Biso 1.000000  C     
 C5     1.0    0.502935    0.538078    0.025697 Biso 1.000000  C     
 C6     1.0    0.043865    0.038078    0.598303 Biso 1.000000  C     
 C7     1.0    1.002935    0.538078    0.098303 Biso 1.000000  C     
 C8     1.0    0.543865    0.038078    0.525697 Biso 1.000000  C     
 C9     1.0    0.561372    0.464649    0.523117 Biso 1.000000  C     
 C10    1.0   -0.014572    0.964649    0.100883 Biso 1.000000  C     
 C11    1.0    0.061372    0.464649    0.600883 Biso 1.000000  C     
 C12    1.0    0.485428    0.964649    0.023117 Biso 1.000000  C     
 H1     1.0    0.231250    0.249697    0.386963 Biso 1.000000  H     
 H2     1.0    0.315550    0.749697    0.237037 Biso 1.000000  H     
 H3     1.0    0.731250    0.249697    0.737037 Biso 1.000000  H     
 H4     1.0    0.815550    0.749697    0.886963 Biso 1.000000  H     
 H5     1.0    0.566928    0.477845    0.105140 Biso 1.000000  H     
 H6     1.0   -0.020128    0.977845    0.518860 Biso 1.000000  H     
 H7     1.0    0.066928    0.477845    0.018860 Biso 1.000000  H     
 H8     1.0    0.479872    0.977845    0.605140 Biso 1.000000  H     
 H9     1.0    0.501881    0.530853    0.596195 Biso 1.000000  H     
 H10    1.0    0.044919    0.030853    0.027805 Biso 1.000000  H     
 H11    1.0    1.001881    0.530853    0.527805 Biso 1.000000  H     
 H12    1.0    0.544919    0.030853    0.096195 Biso 1.000000  H     
 H13    1.0    0.700269    0.301585    0.171057 Biso 1.000000  H     
 H14    1.0    0.846531    0.801585    0.452943 Biso 1.000000  H     
 H15    1.0    0.200329    0.301908    0.952735 Biso 1.000000  H     
 H16    1.0    0.346471    0.801908    0.671265 Biso 1.000000  H     
 H17    1.0    0.703471    0.158031    0.233269 Biso 1.000000  H     
 H18    1.0    0.843329    0.658031    0.390731 Biso 1.000000  H     
 H19    1.0    0.203480    0.158215    0.891227 Biso 1.000000  H     
 H20    1.0    0.343320    0.658215    0.732773 Biso 1.000000  H     
 H21    1.0    0.629460    0.263392    0.367161 Biso 1.000000  H     
 H22    1.0    0.917340    0.763392    0.256839 Biso 1.000000  H     
 H23    1.0    0.129442    0.263284    0.756851 Biso 1.000000  H     
 H24    1.0    0.417358    0.763284    0.867149 Biso 1.000000  H     
 H25    1.0    0.861648    0.330421    0.423032 Biso 1.000000  H     
 H26    1.0    0.685152    0.830421    0.200968 Biso 1.000000  H     
 H27    1.0    0.361623    0.330161    0.700547 Biso 1.000000  H     
 H28    1.0    0.185177    0.830161    0.923453 Biso 1.000000  H     
 H29    1.0    0.880250    0.187177    0.427553 Biso 1.000000  H     
 H30    1.0    0.666550    0.687177    0.196447 Biso 1.000000  H     
 H31    1.0    0.380195    0.186906    0.696723 Biso 1.000000  H     
 H32    1.0    0.166605    0.686905    0.927277 Biso 1.000000  H     
 N1     1.0    0.869061    0.257477    0.346340 Biso 1.000000  N     
 N2     1.0    0.677739    0.757477    0.277660 Biso 1.000000  N     
 N3     1.0    0.369050    0.257389    0.777594 Biso 1.000000  N     
 N4     1.0    0.177750    0.757389    0.846406 Biso 1.000000  N     
 N5     1.0    0.715000    0.244687    0.275152 Biso 1.000000  N     
 N6     1.0    0.831800    0.744687    0.348848 Biso 1.000000  N     
 N7     1.0    0.215011    0.244775    0.848914 Biso 1.000000  N     
 N8     1.0    0.331789    0.744775    0.775086 Biso 1.000000  N     
