_cell_length_a     8.6512
_cell_length_b    11.4883
_cell_length_c     7.7542
_cell_angle_alpha 90.0
_cell_angle_beta 90.0
_cell_angle_gamma 90.0
_space_group_IT_number                 1
 loop_
 _space_group_symop_operation_xyz 
 'x, y, z' 
 loop_ 
 _atom_site_label 
 _atom_site_occupancy 
 _atom_site_fract_x 
 _atom_site_fract_y
 _atom_site_fract_z
 _atom_site_adp_type
 _atom_site_U_iso_or_equiv
 _atom_site_type_symbol
 Zn1    1.0    0.281931    0.499967    0.311828 Biso 1.000000  Zn    
 Zn2    1.0    0.251669   -0.000033    0.312172 Biso 1.000000  Zn    
 Zn3    1.0    0.781931    0.499967    0.812172 Biso 1.000000  Zn    
 Zn4    1.0    0.751669   -0.000033    0.811828 Biso 1.000000  Zn    
 O1     1.0    0.243531    0.345399    0.168304 Biso 1.000000  O     
 O2     1.0    0.290069    0.845399    0.455696 Biso 1.000000  O     
 O3     1.0    0.743531    0.345399    0.955696 Biso 1.000000  O     
 O4     1.0    0.790069    0.845399    0.668304 Biso 1.000000  O     
 O5     1.0    0.221054    0.155369    0.165613 Biso 1.000000  O     
 O6     1.0    0.312546    0.655369    0.458387 Biso 1.000000  O     
 O7     1.0    0.721054    0.155369    0.958387 Biso 1.000000  O     
 O8     1.0    0.812546    0.655369    0.665612 Biso 1.000000  O     
 O9     1.0    0.372714    0.571468    0.079362 Biso 1.000000  O     
 O10    1.0    0.160886    0.071468    0.544638 Biso 1.000000  O     
 O11    1.0    0.872714    0.571468    0.044638 Biso 1.000000  O     
 O12    1.0    0.660886    0.071468    0.579362 Biso 1.000000  O     
 O13    1.0    0.563439    0.569614    0.884717 Biso 1.000000  O     
 O14    1.0   -0.029840    0.069614    0.739283 Biso 1.000000  O     
 O15    1.0    0.063439    0.569614    0.239283 Biso 1.000000  O     
 O16    1.0    0.470160    0.069614    0.384717 Biso 1.000000  O     
 O17    1.0    0.499327    0.428472    0.386047 Biso 1.000000  O     
 O18    1.0    0.034273    0.928472    0.237953 Biso 1.000000  O     
 O19    1.0    0.999327    0.428472    0.737953 Biso 1.000000  O     
 O20    1.0    0.534274    0.928472    0.886047 Biso 1.000000  O     
 O21    1.0    0.690251    0.427984    0.580674 Biso 1.000000  O     
 O22    1.0    0.843349    0.927984    0.043326 Biso 1.000000  O     
 O23    1.0    0.190251    0.427984    0.543326 Biso 1.000000  O     
 O24    1.0    0.343349    0.927984    0.080674 Biso 1.000000  O     
 C1     1.0    0.229647    0.250216    0.244954 Biso 1.000000  C     
 C2     1.0    0.303953    0.750216    0.379046 Biso 1.000000  C     
 C3     1.0    0.729647    0.250216    0.879046 Biso 1.000000  C     
 C4     1.0    0.803953    0.750216    0.744954 Biso 1.000000  C     
 C5     1.0    0.505088    0.539442    0.026988 Biso 1.000000  C     
 C6     1.0    0.028512    0.039442    0.597012 Biso 1.000000  C     
 C7     1.0    1.005088    0.539442    0.097012 Biso 1.000000  C     
 C8     1.0    0.528512    0.039442    0.526988 Biso 1.000000  C     
 C9     1.0    0.563525    0.466013    0.521826 Biso 1.000000  C     
 C10    1.0   -0.029925    0.966013    0.102174 Biso 1.000000  C     
 C11    1.0    0.063525    0.466013    0.602174 Biso 1.000000  C     
 C12    1.0    0.470075    0.966013    0.021826 Biso 1.000000  C     
 H1     1.0    0.224650    0.249395    0.386963 Biso 1.000000  H     
 H2     1.0    0.308950    0.749395    0.237037 Biso 1.000000  H     
 H3     1.0    0.724650    0.249395    0.737037 Biso 1.000000  H     
 H4     1.0    0.808950    0.749395    0.886963 Biso 1.000000  H     
 H5     1.0    0.571332    0.482194    0.109613 Biso 1.000000  H     
 H6     1.0   -0.037732    0.982194    0.514387 Biso 1.000000  H     
 H7     1.0    0.071332    0.482194    0.014387 Biso 1.000000  H     
 H8     1.0    0.462268    0.982194    0.609613 Biso 1.000000  H     
 H9     1.0    0.506285    0.535202    0.591722 Biso 1.000000  H     
 H10    1.0    0.027315    0.035202    0.032278 Biso 1.000000  H     
 H11    1.0    1.006285    0.535202    0.532278 Biso 1.000000  H     
 H12    1.0    0.527315    0.035202    0.091722 Biso 1.000000  H     
 H13    1.0    0.692901    0.273987    0.156184 Biso 1.000000  H     
 H14    1.0    0.840699    0.773987    0.467816 Biso 1.000000  H     
 H15    1.0    0.192971    0.274404    0.967738 Biso 1.000000  H     
 H16    1.0    0.340629    0.774404    0.656262 Biso 1.000000  H     
 H17    1.0    0.697809    0.147739    0.274934 Biso 1.000000  H     
 H18    1.0    0.835791    0.647739    0.349066 Biso 1.000000  H     
 H19    1.0    0.197797    0.147846    0.849710 Biso 1.000000  H     
 H20    1.0    0.335803    0.647846    0.774290 Biso 1.000000  H     
 H21    1.0    0.622809    0.273601    0.360595 Biso 1.000000  H     
 H22    1.0    0.910791    0.773601    0.263405 Biso 1.000000  H     
 H23    1.0    0.122794    0.273495    0.763366 Biso 1.000000  H     
 H24    1.0    0.410806    0.773495    0.860634 Biso 1.000000  H     
 H25    1.0    0.854315    0.349804    0.385716 Biso 1.000000  H     
 H26    1.0    0.679285    0.849804    0.238284 Biso 1.000000  H     
 H27    1.0    0.354309    0.349598    0.737689 Biso 1.000000  H     
 H28    1.0    0.179291    0.849598    0.886311 Biso 1.000000  H     
 H29    1.0    0.874535    0.213140    0.448844 Biso 1.000000  H     
 H30    1.0    0.659065    0.713140    0.175156 Biso 1.000000  H     
 H31    1.0    0.374468    0.212768    0.675335 Biso 1.000000  H     
 H32    1.0    0.159132    0.712767    0.948666 Biso 1.000000  H     
 N1     1.0    0.862438    0.265409    0.341978 Biso 1.000000  N     
 N2     1.0    0.671162    0.765409    0.282022 Biso 1.000000  N     
 N3     1.0    0.362428    0.265316    0.781906 Biso 1.000000  N     
 N4     1.0    0.171172    0.765316    0.842094 Biso 1.000000  N     
 N5     1.0    0.708423    0.238899    0.279511 Biso 1.000000  N     
 N6     1.0    0.825177    0.738899    0.344489 Biso 1.000000  N     
 N7     1.0    0.208432    0.238992    0.844604 Biso 1.000000  N     
 N8     1.0    0.325168    0.738992    0.779396 Biso 1.000000  N     
