_cell_length_a     8.6512
_cell_length_b    11.4883
_cell_length_c     7.7542
_cell_angle_alpha 90.0
_cell_angle_beta 90.0
_cell_angle_gamma 90.0
_space_group_IT_number                 1
 loop_
 _space_group_symop_operation_xyz 
 'x, y, z' 
 loop_ 
 _atom_site_label 
 _atom_site_occupancy 
 _atom_site_fract_x 
 _atom_site_fract_y
 _atom_site_fract_z
 _atom_site_adp_type
 _atom_site_U_iso_or_equiv
 _atom_site_type_symbol
 Zn1    1.0    0.282896    0.499951    0.311741 Biso 1.000000  Zn    
 Zn2    1.0    0.237504   -0.000049    0.312259 Biso 1.000000  Zn    
 Zn3    1.0    0.782896    0.499951    0.812259 Biso 1.000000  Zn    
 Zn4    1.0    0.737504   -0.000049    0.811741 Biso 1.000000  Zn    
 O1     1.0    0.242550    0.345592    0.168977 Biso 1.000000  O     
 O2     1.0    0.277850    0.845592    0.455023 Biso 1.000000  O     
 O3     1.0    0.742550    0.345592    0.955023 Biso 1.000000  O     
 O4     1.0    0.777850    0.845592    0.668977 Biso 1.000000  O     
 O5     1.0    0.208835    0.155562    0.164940 Biso 1.000000  O     
 O6     1.0    0.311565    0.655562    0.459060 Biso 1.000000  O     
 O7     1.0    0.708835    0.155562    0.959060 Biso 1.000000  O     
 O8     1.0    0.811565    0.655562    0.664939 Biso 1.000000  O     
 O9     1.0    0.373455    0.571332    0.079033 Biso 1.000000  O     
 O10    1.0    0.146945    0.071332    0.544967 Biso 1.000000  O     
 O11    1.0    0.873455    0.571332    0.044967 Biso 1.000000  O     
 O12    1.0    0.646945    0.071332    0.579033 Biso 1.000000  O     
 O13    1.0    0.564131    0.569136    0.884385 Biso 1.000000  O     
 O14    1.0   -0.043731    0.069136    0.739615 Biso 1.000000  O     
 O15    1.0    0.064131    0.569136    0.239615 Biso 1.000000  O     
 O16    1.0    0.456269    0.069136    0.384385 Biso 1.000000  O     
 O17    1.0    0.500018    0.427994    0.386380 Biso 1.000000  O     
 O18    1.0    0.020382    0.927994    0.237620 Biso 1.000000  O     
 O19    1.0    1.000018    0.427994    0.737620 Biso 1.000000  O     
 O20    1.0    0.520382    0.927994    0.886380 Biso 1.000000  O     
 O21    1.0    0.690992    0.427848    0.581003 Biso 1.000000  O     
 O22    1.0    0.829408    0.927848    0.042997 Biso 1.000000  O     
 O23    1.0    0.190992    0.427848    0.542997 Biso 1.000000  O     
 O24    1.0    0.329408    0.927848    0.081003 Biso 1.000000  O     
 C1     1.0    0.223047    0.250323    0.244954 Biso 1.000000  C     
 C2     1.0    0.297353    0.750323    0.379046 Biso 1.000000  C     
 C3     1.0    0.723047    0.250323    0.879046 Biso 1.000000  C     
 C4     1.0    0.797353    0.750323    0.744954 Biso 1.000000  C     
 C5     1.0    0.507241    0.540806    0.028278 Biso 1.000000  C     
 C6     1.0    0.013159    0.040806    0.595722 Biso 1.000000  C     
 C7     1.0    1.007241    0.540806    0.095722 Biso 1.000000  C     
 C8     1.0    0.513159    0.040806    0.528278 Biso 1.000000  C     
 C9     1.0    0.565678    0.467377    0.520536 Biso 1.000000  C     
 C10    1.0   -0.045278    0.967377    0.103464 Biso 1.000000  C     
 C11    1.0    0.065678    0.467377    0.603464 Biso 1.000000  C     
 C12    1.0    0.454722    0.967377    0.020536 Biso 1.000000  C     
 H1     1.0    0.218050    0.249092    0.386963 Biso 1.000000  H     
 H2     1.0    0.302350    0.749092    0.237037 Biso 1.000000  H     
 H3     1.0    0.718050    0.249092    0.737037 Biso 1.000000  H     
 H4     1.0    0.802350    0.749092    0.886963 Biso 1.000000  H     
 H5     1.0    0.575736    0.486542    0.114086 Biso 1.000000  H     
 H6     1.0   -0.055336    0.986542    0.509914 Biso 1.000000  H     
 H7     1.0    0.075736    0.486542    0.009914 Biso 1.000000  H     
 H8     1.0    0.444664    0.986542    0.614086 Biso 1.000000  H     
 H9     1.0    0.510689    0.539550    0.587249 Biso 1.000000  H     
 H10    1.0    0.009711    0.039550    0.036751 Biso 1.000000  H     
 H11    1.0    1.010689    0.539550    0.536751 Biso 1.000000  H     
 H12    1.0    0.509711    0.039550    0.087249 Biso 1.000000  H     
 H13    1.0    0.685852    0.244648    0.153678 Biso 1.000000  H     
 H14    1.0    0.834548    0.744648    0.470322 Biso 1.000000  H     
 H15    1.0    0.185923    0.245134    0.970432 Biso 1.000000  H     
 H16    1.0    0.334477    0.745134    0.653568 Biso 1.000000  H     
 H17    1.0    0.692501    0.145623    0.319623 Biso 1.000000  H     
 H18    1.0    0.827899    0.645623    0.304377 Biso 1.000000  H     
 H19    1.0    0.192463    0.145614    0.805133 Biso 1.000000  H     
 H20    1.0    0.327937    0.645614    0.818867 Biso 1.000000  H     
 H21    1.0    0.616001    0.282079    0.350530 Biso 1.000000  H     
 H22    1.0    0.904399    0.782079    0.273470 Biso 1.000000  H     
 H23    1.0    0.115991    0.281990    0.773377 Biso 1.000000  H     
 H24    1.0    0.404409    0.781990    0.850623 Biso 1.000000  H     
 H25    1.0    0.846554    0.361537    0.342352 Biso 1.000000  H     
 H26    1.0    0.673846    0.861537    0.281648 Biso 1.000000  H     
 H27    1.0    0.346573    0.361429    0.780899 Biso 1.000000  H     
 H28    1.0    0.173827    0.861429    0.843101 Biso 1.000000  H     
 H29    1.0    0.868584    0.242194    0.459072 Biso 1.000000  H     
 H30    1.0    0.651816    0.742194    0.164928 Biso 1.000000  H     
 H31    1.0    0.368511    0.241736    0.664950 Biso 1.000000  H     
 H32    1.0    0.151889    0.741735    0.959051 Biso 1.000000  H     
 N1     1.0    0.855701    0.272322    0.334973 Biso 1.000000  N     
 N2     1.0    0.664699    0.772322    0.289027 Biso 1.000000  N     
 N3     1.0    0.355696    0.272236    0.788857 Biso 1.000000  N     
 N4     1.0    0.164704    0.772236    0.835143 Biso 1.000000  N     
 N5     1.0    0.701959    0.234131    0.286517 Biso 1.000000  N     
 N6     1.0    0.818441    0.734131    0.337483 Biso 1.000000  N     
 N7     1.0    0.201965    0.234218    0.837653 Biso 1.000000  N     
 N8     1.0    0.318435    0.734218    0.786347 Biso 1.000000  N     
