_cell_length_a     8.6512
_cell_length_b    11.4883
_cell_length_c     7.7542
_cell_angle_alpha 90.0
_cell_angle_beta 90.0
_cell_angle_gamma 90.0
_space_group_IT_number                 1
 loop_
 _space_group_symop_operation_xyz 
 'x, y, z' 
 loop_ 
 _atom_site_label 
 _atom_site_occupancy 
 _atom_site_fract_x 
 _atom_site_fract_y
 _atom_site_fract_z
 _atom_site_adp_type
 _atom_site_U_iso_or_equiv
 _atom_site_type_symbol
 Zn1    1.0    0.279035    0.500016    0.312086 Biso 1.000000  Zn    
 Zn2    1.0    0.294165    0.000016    0.311914 Biso 1.000000  Zn    
 Zn3    1.0    0.779035    0.500016    0.811914 Biso 1.000000  Zn    
 Zn4    1.0    0.794165    0.000016    0.812086 Biso 1.000000  Zn    
 O1     1.0    0.246473    0.344823    0.166286 Biso 1.000000  O     
 O2     1.0    0.326727    0.844823    0.457714 Biso 1.000000  O     
 O3     1.0    0.746473    0.344823    0.957715 Biso 1.000000  O     
 O4     1.0    0.826727    0.844823    0.666286 Biso 1.000000  O     
 O5     1.0    0.257712    0.154793    0.167631 Biso 1.000000  O     
 O6     1.0    0.315488    0.654793    0.456369 Biso 1.000000  O     
 O7     1.0    0.757712    0.154793    0.956369 Biso 1.000000  O     
 O8     1.0    0.815488    0.654793    0.667631 Biso 1.000000  O     
 O9     1.0    0.370490    0.571879    0.080346 Biso 1.000000  O     
 O10    1.0    0.202710    0.071879    0.543654 Biso 1.000000  O     
 O11    1.0    0.870490    0.571879    0.043654 Biso 1.000000  O     
 O12    1.0    0.702710    0.071879    0.580346 Biso 1.000000  O     
 O13    1.0    0.561365    0.571049    0.885715 Biso 1.000000  O     
 O14    1.0    0.011835    0.071049    0.738285 Biso 1.000000  O     
 O15    1.0    0.061365    0.571049    0.238285 Biso 1.000000  O     
 O16    1.0    0.511835    0.071049    0.385715 Biso 1.000000  O     
 O17    1.0    0.497252    0.429907    0.385050 Biso 1.000000  O     
 O18    1.0    0.075948    0.929907    0.238950 Biso 1.000000  O     
 O19    1.0    0.997252    0.429907    0.738950 Biso 1.000000  O     
 O20    1.0    0.575948    0.929907    0.885050 Biso 1.000000  O     
 O21    1.0    0.688027    0.428395    0.579690 Biso 1.000000  O     
 O22    1.0    0.885173    0.928395    0.044310 Biso 1.000000  O     
 O23    1.0    0.188027    0.428395    0.544310 Biso 1.000000  O     
 O24    1.0    0.385173    0.928395    0.079690 Biso 1.000000  O     
 C1     1.0    0.249447    0.249892    0.244954 Biso 1.000000  C     
 C2     1.0    0.323753    0.749892    0.379046 Biso 1.000000  C     
 C3     1.0    0.749447    0.249892    0.879046 Biso 1.000000  C     
 C4     1.0    0.823753    0.749892    0.744954 Biso 1.000000  C     
 C5     1.0    0.498628    0.535351    0.023117 Biso 1.000000  C     
 C6     1.0    0.074572    0.035351    0.600883 Biso 1.000000  C     
 C7     1.0    0.998628    0.535351    0.100883 Biso 1.000000  C     
 C8     1.0    0.574572    0.035351    0.523117 Biso 1.000000  C     
 C9     1.0    0.557065    0.461922    0.525697 Biso 1.000000  C     
 C10    1.0    0.016135    0.961922    0.098303 Biso 1.000000  C     
 C11    1.0    0.057065    0.461922    0.598303 Biso 1.000000  C     
 C12    1.0    0.516135    0.961922    0.025697 Biso 1.000000  C     
 H1     1.0    0.244450    0.250303    0.386963 Biso 1.000000  H     
 H2     1.0    0.328750    0.750303    0.237037 Biso 1.000000  H     
 H3     1.0    0.744450    0.250303    0.737037 Biso 1.000000  H     
 H4     1.0    0.828750    0.750303    0.886963 Biso 1.000000  H     
 H5     1.0    0.558119    0.469147    0.096195 Biso 1.000000  H     
 H6     1.0    0.015081    0.969147    0.527805 Biso 1.000000  H     
 H7     1.0    0.058119    0.469147    0.027805 Biso 1.000000  H     
 H8     1.0    0.515081    0.969147    0.596195 Biso 1.000000  H     
 H9     1.0    0.493072    0.522155    0.605140 Biso 1.000000  H     
 H10    1.0    0.080128    0.022155    0.018860 Biso 1.000000  H     
 H11    1.0    0.993072    0.522155    0.518860 Biso 1.000000  H     
 H12    1.0    0.580128    0.022155    0.105140 Biso 1.000000  H     
 H13    1.0    0.715345    0.342875    0.232234 Biso 1.000000  H     
 H14    1.0    0.857855    0.842875    0.391766 Biso 1.000000  H     
 H15    1.0    0.215374    0.342998    0.891485 Biso 1.000000  H     
 H16    1.0    0.357826    0.842998    0.732515 Biso 1.000000  H     
 H17    1.0    0.716015    0.199015    0.171496 Biso 1.000000  H     
 H18    1.0    0.857185    0.699015    0.452504 Biso 1.000000  H     
 H19    1.0    0.216043    0.199229    0.952694 Biso 1.000000  H     
 H20    1.0    0.357157    0.699229    0.671306 Biso 1.000000  H     
 H21    1.0    0.642382    0.240752    0.367810 Biso 1.000000  H     
 H22    1.0    0.930818    0.740752    0.256190 Biso 1.000000  H     
 H23    1.0    0.142367    0.240677    0.756266 Biso 1.000000  H     
 H24    1.0    0.430833    0.740677    0.867734 Biso 1.000000  H     
 H25    1.0    0.875025    0.274931    0.468587 Biso 1.000000  H     
 H26    1.0    0.698175    0.774931    0.155413 Biso 1.000000  H     
 H27    1.0    0.374990    0.274691    0.655307 Biso 1.000000  H     
 H28    1.0    0.198210    0.774691    0.968693 Biso 1.000000  H     
 H29    1.0    0.891576    0.151927    0.359320 Biso 1.000000  H     
 H30    1.0    0.681624    0.651927    0.264680 Biso 1.000000  H     
 H31    1.0    0.391553    0.151850    0.764971 Biso 1.000000  H     
 H32    1.0    0.181647    0.651850    0.859028 Biso 1.000000  H     
 N1     1.0    0.882049    0.240736    0.346108 Biso 1.000000  N     
 N2     1.0    0.691151    0.740736    0.277892 Biso 1.000000  N     
 N3     1.0    0.382039    0.240678    0.777896 Biso 1.000000  N     
 N4     1.0    0.191161    0.740678    0.846104 Biso 1.000000  N     
 N5     1.0    0.728413    0.257136    0.275401 Biso 1.000000  N     
 N6     1.0    0.844787    0.757136    0.348599 Biso 1.000000  N     
 N7     1.0    0.228422    0.257194    0.848595 Biso 1.000000  N     
 N8     1.0    0.344778    0.757194    0.775405 Biso 1.000000  N     
