_cell_length_a     8.6512
_cell_length_b    11.4883
_cell_length_c     7.7542
_cell_angle_alpha 90.0
_cell_angle_beta 90.0
_cell_angle_gamma 90.0
_space_group_IT_number                 1
 loop_
 _space_group_symop_operation_xyz 
 'x, y, z' 
 loop_ 
 _atom_site_label 
 _atom_site_occupancy 
 _atom_site_fract_x 
 _atom_site_fract_y
 _atom_site_fract_z
 _atom_site_adp_type
 _atom_site_U_iso_or_equiv
 _atom_site_type_symbol
 Zn1    1.0    0.278069    0.500033    0.312172 Biso 1.000000  Zn    
 Zn2    1.0    0.308331    0.000033    0.311828 Biso 1.000000  Zn    
 Zn3    1.0    0.778069    0.500033    0.811828 Biso 1.000000  Zn    
 Zn4    1.0    0.808331    0.000033    0.812172 Biso 1.000000  Zn    
 O1     1.0    0.247454    0.344631    0.165613 Biso 1.000000  O     
 O2     1.0    0.338946    0.844631    0.458387 Biso 1.000000  O     
 O3     1.0    0.747454    0.344631    0.958388 Biso 1.000000  O     
 O4     1.0    0.838946    0.844631    0.665613 Biso 1.000000  O     
 O5     1.0    0.269931    0.154601    0.168304 Biso 1.000000  O     
 O6     1.0    0.316469    0.654601    0.455696 Biso 1.000000  O     
 O7     1.0    0.769931    0.154601    0.955696 Biso 1.000000  O     
 O8     1.0    0.816469    0.654601    0.668304 Biso 1.000000  O     
 O9     1.0    0.369749    0.572016    0.080674 Biso 1.000000  O     
 O10    1.0    0.216651    0.072016    0.543326 Biso 1.000000  O     
 O11    1.0    0.869749    0.572016    0.043326 Biso 1.000000  O     
 O12    1.0    0.716651    0.072016    0.580674 Biso 1.000000  O     
 O13    1.0    0.560673    0.571528    0.886047 Biso 1.000000  O     
 O14    1.0    0.025726    0.071528    0.737953 Biso 1.000000  O     
 O15    1.0    0.060673    0.571528    0.237953 Biso 1.000000  O     
 O16    1.0    0.525726    0.071528    0.386047 Biso 1.000000  O     
 O17    1.0    0.496560    0.430386    0.384717 Biso 1.000000  O     
 O18    1.0    0.089839    0.930386    0.239283 Biso 1.000000  O     
 O19    1.0    0.996560    0.430386    0.739283 Biso 1.000000  O     
 O20    1.0    0.589840    0.930386    0.884717 Biso 1.000000  O     
 O21    1.0    0.687286    0.428532    0.579362 Biso 1.000000  O     
 O22    1.0    0.899114    0.928532    0.044638 Biso 1.000000  O     
 O23    1.0    0.187286    0.428532    0.544638 Biso 1.000000  O     
 O24    1.0    0.399114    0.928532    0.079362 Biso 1.000000  O     
 C1     1.0    0.256047    0.249784    0.244954 Biso 1.000000  C     
 C2     1.0    0.330353    0.749784    0.379046 Biso 1.000000  C     
 C3     1.0    0.756047    0.249784    0.879046 Biso 1.000000  C     
 C4     1.0    0.830353    0.749784    0.744954 Biso 1.000000  C     
 C5     1.0    0.496475    0.533987    0.021826 Biso 1.000000  C     
 C6     1.0    0.089925    0.033987    0.602174 Biso 1.000000  C     
 C7     1.0    0.996475    0.533987    0.102174 Biso 1.000000  C     
 C8     1.0    0.589925    0.033987    0.521826 Biso 1.000000  C     
 C9     1.0    0.554912    0.460558    0.526988 Biso 1.000000  C     
 C10    1.0    0.031488    0.960558    0.097012 Biso 1.000000  C     
 C11    1.0    0.054912    0.460558    0.597012 Biso 1.000000  C     
 C12    1.0    0.531488    0.960558    0.026988 Biso 1.000000  C     
 H1     1.0    0.251050    0.250605    0.386963 Biso 1.000000  H     
 H2     1.0    0.335350    0.750605    0.237037 Biso 1.000000  H     
 H3     1.0    0.751050    0.250605    0.737037 Biso 1.000000  H     
 H4     1.0    0.835350    0.750605    0.886963 Biso 1.000000  H     
 H5     1.0    0.553715    0.464798    0.091722 Biso 1.000000  H     
 H6     1.0    0.032685    0.964798    0.532278 Biso 1.000000  H     
 H7     1.0    0.053715    0.464798    0.032278 Biso 1.000000  H     
 H8     1.0    0.532685    0.964798    0.591722 Biso 1.000000  H     
 H9     1.0    0.488668    0.517806    0.609613 Biso 1.000000  H     
 H10    1.0    0.097732    0.017806    0.014387 Biso 1.000000  H     
 H11    1.0    0.988668    0.517806    0.514387 Biso 1.000000  H     
 H12    1.0    0.597732    0.017806    0.109613 Biso 1.000000  H     
 H13    1.0    0.722752    0.353164    0.273670 Biso 1.000000  H     
 H14    1.0    0.863648    0.853164    0.350330 Biso 1.000000  H     
 H15    1.0    0.222766    0.353209    0.850091 Biso 1.000000  H     
 H16    1.0    0.363634    0.853209    0.773909 Biso 1.000000  H     
 H17    1.0    0.722838    0.226325    0.156182 Biso 1.000000  H     
 H18    1.0    0.863562    0.726325    0.467818 Biso 1.000000  H     
 H19    1.0    0.222865    0.226502    0.967891 Biso 1.000000  H     
 H20    1.0    0.363535    0.726502    0.656109 Biso 1.000000  H     
 H21    1.0    0.648734    0.229945    0.361724 Biso 1.000000  H     
 H22    1.0    0.937666    0.729945    0.262276 Biso 1.000000  H     
 H23    1.0    0.148724    0.229895    0.762357 Biso 1.000000  H     
 H24    1.0    0.437676    0.729895    0.861643 Biso 1.000000  H     
 H25    1.0    0.881202    0.243009    0.473290 Biso 1.000000  H     
 H26    1.0    0.705198    0.743009    0.150710 Biso 1.000000  H     
 H27    1.0    0.381172    0.242824    0.650706 Biso 1.000000  H     
 H28    1.0    0.205228    0.742824    0.973294 Biso 1.000000  H     
 H29    1.0    0.897460    0.145233    0.317800 Biso 1.000000  H     
 H30    1.0    0.688940    0.645233    0.306200 Biso 1.000000  H     
 H31    1.0    0.397451    0.145223    0.806432 Biso 1.000000  H     
 H32    1.0    0.188949    0.645222    0.817567 Biso 1.000000  H     
 N1     1.0    0.888475    0.233065    0.341585 Biso 1.000000  N     
 N2     1.0    0.697925    0.733065    0.282415 Biso 1.000000  N     
 N3     1.0    0.388468    0.233027    0.782434 Biso 1.000000  N     
 N4     1.0    0.197932    0.733027    0.841566 Biso 1.000000  N     
 N5     1.0    0.735187    0.262658    0.279936 Biso 1.000000  N     
 N6     1.0    0.851213    0.762658    0.344064 Biso 1.000000  N     
 N7     1.0    0.235193    0.262695    0.844045 Biso 1.000000  N     
 N8     1.0    0.351207    0.762695    0.779955 Biso 1.000000  N     
