_cell_length_a     8.6512
_cell_length_b    11.4883
_cell_length_c     7.7542
_cell_angle_alpha 90.0
_cell_angle_beta 90.0
_cell_angle_gamma 90.0
_space_group_IT_number                 1
 loop_
 _space_group_symop_operation_xyz 
 'x, y, z' 
 loop_ 
 _atom_site_label 
 _atom_site_occupancy 
 _atom_site_fract_x 
 _atom_site_fract_y
 _atom_site_fract_z
 _atom_site_adp_type
 _atom_site_U_iso_or_equiv
 _atom_site_type_symbol
 Zn1    1.0    0.283862    0.499934    0.311655 Biso 1.000000  Zn    
 Zn2    1.0    0.223338   -0.000066    0.312345 Biso 1.000000  Zn    
 Zn3    1.0    0.783862    0.499934    0.812345 Biso 1.000000  Zn    
 Zn4    1.0    0.723338   -0.000066    0.811655 Biso 1.000000  Zn    
 O1     1.0    0.241570    0.345784    0.169650 Biso 1.000000  O     
 O2     1.0    0.265630    0.845784    0.454350 Biso 1.000000  O     
 O3     1.0    0.741570    0.345784    0.954350 Biso 1.000000  O     
 O4     1.0    0.765630    0.845784    0.669650 Biso 1.000000  O     
 O5     1.0    0.196615    0.155754    0.164267 Biso 1.000000  O     
 O6     1.0    0.310585    0.655754    0.459733 Biso 1.000000  O     
 O7     1.0    0.696615    0.155754    0.959733 Biso 1.000000  O     
 O8     1.0    0.810585    0.655754    0.664266 Biso 1.000000  O     
 O9     1.0    0.374196    0.571195    0.078705 Biso 1.000000  O     
 O10    1.0    0.133004    0.071195    0.545295 Biso 1.000000  O     
 O11    1.0    0.874196    0.571195    0.045295 Biso 1.000000  O     
 O12    1.0    0.633004    0.071195    0.578705 Biso 1.000000  O     
 O13    1.0    0.564823    0.568657    0.884052 Biso 1.000000  O     
 O14    1.0   -0.057623    0.068657    0.739948 Biso 1.000000  O     
 O15    1.0    0.064823    0.568657    0.239947 Biso 1.000000  O     
 O16    1.0    0.442377    0.068657    0.384053 Biso 1.000000  O     
 O17    1.0    0.500710    0.427515    0.386712 Biso 1.000000  O     
 O18    1.0    0.006490    0.927515    0.237287 Biso 1.000000  O     
 O19    1.0    1.000709    0.427515    0.737287 Biso 1.000000  O     
 O20    1.0    0.506490    0.927515    0.886713 Biso 1.000000  O     
 O21    1.0    0.691733    0.427711    0.581331 Biso 1.000000  O     
 O22    1.0    0.815467    0.927711    0.042669 Biso 1.000000  O     
 O23    1.0    0.191733    0.427711    0.542669 Biso 1.000000  O     
 O24    1.0    0.315467    0.927711    0.081331 Biso 1.000000  O     
 C1     1.0    0.216447    0.250431    0.244954 Biso 1.000000  C     
 C2     1.0    0.290753    0.750431    0.379046 Biso 1.000000  C     
 C3     1.0    0.716447    0.250431    0.879046 Biso 1.000000  C     
 C4     1.0    0.790753    0.750431    0.744954 Biso 1.000000  C     
 C5     1.0    0.509395    0.542170    0.029569 Biso 1.000000  C     
 C6     1.0   -0.002195    0.042170    0.594431 Biso 1.000000  C     
 C7     1.0    1.009395    0.542170    0.094431 Biso 1.000000  C     
 C8     1.0    0.497805    0.042170    0.529569 Biso 1.000000  C     
 C9     1.0    0.567832    0.468741    0.519245 Biso 1.000000  C     
 C10    1.0   -0.060632    0.968741    0.104755 Biso 1.000000  C     
 C11    1.0    0.067832    0.468741    0.604755 Biso 1.000000  C     
 C12    1.0    0.439368    0.968741    0.019245 Biso 1.000000  C     
 H1     1.0    0.211450    0.248790    0.386963 Biso 1.000000  H     
 H2     1.0    0.295750    0.748790    0.237037 Biso 1.000000  H     
 H3     1.0    0.711450    0.248790    0.737037 Biso 1.000000  H     
 H4     1.0    0.795750    0.748790    0.886963 Biso 1.000000  H     
 H5     1.0    0.580141    0.490891    0.118559 Biso 1.000000  H     
 H6     1.0   -0.072941    0.990891    0.505441 Biso 1.000000  H     
 H7     1.0    0.080141    0.490891    0.005441 Biso 1.000000  H     
 H8     1.0    0.427059    0.990891    0.618559 Biso 1.000000  H     
 H9     1.0    0.515094    0.543899    0.582776 Biso 1.000000  H     
 H10    1.0   -0.007894    0.043899    0.041224 Biso 1.000000  H     
 H11    1.0    1.015094    0.543899    0.541224 Biso 1.000000  H     
 H12    1.0    0.492106    0.043899    0.082776 Biso 1.000000  H     
 H13    1.0    0.679251    0.215954    0.163764 Biso 1.000000  H     
 H14    1.0    0.827949    0.715954    0.460236 Biso 1.000000  H     
 H15    1.0    0.179314    0.216469    0.960578 Biso 1.000000  H     
 H16    1.0    0.327886    0.716469    0.663422 Biso 1.000000  H     
 H17    1.0    0.687442    0.151933    0.363856 Biso 1.000000  H     
 H18    1.0    0.819758    0.651933    0.260144 Biso 1.000000  H     
 H19    1.0    0.187375    0.151774    0.760955 Biso 1.000000  H     
 H20    1.0    0.319825    0.651774    0.863045 Biso 1.000000  H     
 H21    1.0    0.609033    0.288237    0.337816 Biso 1.000000  H     
 H22    1.0    0.898167    0.788237    0.286184 Biso 1.000000  H     
 H23    1.0    0.109031    0.288181    0.786042 Biso 1.000000  H     
 H24    1.0    0.398169    0.788181    0.837958 Biso 1.000000  H     
 H25    1.0    0.838437    0.364783    0.296325 Biso 1.000000  H     
 H26    1.0    0.668763    0.864783    0.327675 Biso 1.000000  H     
 H27    1.0    0.338487    0.364815    0.826817 Biso 1.000000  H     
 H28    1.0    0.168713    0.864815    0.797183 Biso 1.000000  H     
 H29    1.0    0.862257    0.272143    0.457403 Biso 1.000000  H     
 H30    1.0    0.644943    0.772143    0.166597 Biso 1.000000  H     
 H31    1.0    0.362186    0.271631    0.666409 Biso 1.000000  H     
 H32    1.0    0.145014    0.771630    0.957592 Biso 1.000000  H     
 N1     1.0    0.848845    0.277760    0.325850 Biso 1.000000  N     
 N2     1.0    0.658355    0.777760    0.298150 Biso 1.000000  N     
 N3     1.0    0.348846    0.277693    0.797927 Biso 1.000000  N     
 N4     1.0    0.158354    0.777693    0.826073 Biso 1.000000  N     
 N5     1.0    0.695615    0.230838    0.295644 Biso 1.000000  N     
 N6     1.0    0.811585    0.730838    0.328356 Biso 1.000000  N     
 N7     1.0    0.195614    0.230906    0.828579 Biso 1.000000  N     
 N8     1.0    0.311586    0.730906    0.795421 Biso 1.000000  N     
