_cell_length_a     8.6512
_cell_length_b    11.4883
_cell_length_c     7.7542
_cell_angle_alpha 90.0
_cell_angle_beta 90.0
_cell_angle_gamma 90.0
_space_group_IT_number                 1
 loop_
 _space_group_symop_operation_xyz 
 'x, y, z' 
 loop_ 
 _atom_site_label 
 _atom_site_occupancy 
 _atom_site_fract_x 
 _atom_site_fract_y
 _atom_site_fract_z
 _atom_site_adp_type
 _atom_site_U_iso_or_equiv
 _atom_site_type_symbol
 Zn1    1.0    0.275173    0.500082    0.312431 Biso 1.000000  Zn    
 Zn2    1.0    0.350827    0.000082    0.311569 Biso 1.000000  Zn    
 Zn3    1.0    0.775173    0.500082    0.811569 Biso 1.000000  Zn    
 Zn4    1.0    0.850827    0.000082    0.812431 Biso 1.000000  Zn    
 O1     1.0    0.250396    0.344054    0.163594 Biso 1.000000  O     
 O2     1.0    0.375604    0.844054    0.460406 Biso 1.000000  O     
 O3     1.0    0.750396    0.344054    0.960407 Biso 1.000000  O     
 O4     1.0    0.875604    0.844054    0.663594 Biso 1.000000  O     
 O5     1.0    0.306589    0.154024    0.170323 Biso 1.000000  O     
 O6     1.0    0.319411    0.654024    0.453677 Biso 1.000000  O     
 O7     1.0    0.806589    0.154024    0.953677 Biso 1.000000  O     
 O8     1.0    0.819411    0.654024    0.670323 Biso 1.000000  O     
 O9     1.0    0.367526    0.572426    0.081659 Biso 1.000000  O     
 O10    1.0    0.258474    0.072426    0.542341 Biso 1.000000  O     
 O11    1.0    0.867526    0.572426    0.042341 Biso 1.000000  O     
 O12    1.0    0.758474    0.072426    0.581659 Biso 1.000000  O     
 O13    1.0    0.558599    0.572963    0.887045 Biso 1.000000  O     
 O14    1.0    0.067401    0.072963    0.736955 Biso 1.000000  O     
 O15    1.0    0.058599    0.572963    0.236955 Biso 1.000000  O     
 O16    1.0    0.567401    0.072963    0.387045 Biso 1.000000  O     
 O17    1.0    0.494486    0.431821    0.383720 Biso 1.000000  O     
 O18    1.0    0.131514    0.931821    0.240280 Biso 1.000000  O     
 O19    1.0    0.994486    0.431821    0.740280 Biso 1.000000  O     
 O20    1.0    0.631514    0.931821    0.883720 Biso 1.000000  O     
 O21    1.0    0.685063    0.428942    0.578377 Biso 1.000000  O     
 O22    1.0    0.940937    0.928942    0.045623 Biso 1.000000  O     
 O23    1.0    0.185063    0.428942    0.545623 Biso 1.000000  O     
 O24    1.0    0.440937    0.928942    0.078377 Biso 1.000000  O     
 C1     1.0    0.275847    0.249461    0.244954 Biso 1.000000  C     
 C2     1.0    0.350153    0.749461    0.379046 Biso 1.000000  C     
 C3     1.0    0.775847    0.249461    0.879046 Biso 1.000000  C     
 C4     1.0    0.850153    0.749461    0.744954 Biso 1.000000  C     
 C5     1.0    0.490015    0.529895    0.017955 Biso 1.000000  C     
 C6     1.0    0.135985    0.029895    0.606045 Biso 1.000000  C     
 C7     1.0    0.990015    0.529895    0.106045 Biso 1.000000  C     
 C8     1.0    0.635985    0.029895    0.517955 Biso 1.000000  C     
 C9     1.0    0.548452    0.456466    0.530859 Biso 1.000000  C     
 C10    1.0    0.077548    0.956466    0.093141 Biso 1.000000  C     
 C11    1.0    0.048452    0.456466    0.593141 Biso 1.000000  C     
 C12    1.0    0.577548    0.956466    0.030859 Biso 1.000000  C     
 H1     1.0    0.270850    0.251513    0.386963 Biso 1.000000  H     
 H2     1.0    0.355150    0.751513    0.237037 Biso 1.000000  H     
 H3     1.0    0.770850    0.251513    0.737037 Biso 1.000000  H     
 H4     1.0    0.855150    0.751513    0.886963 Biso 1.000000  H     
 H5     1.0    0.540502    0.451752    0.078303 Biso 1.000000  H     
 H6     1.0    0.085498    0.951752    0.545697 Biso 1.000000  H     
 H7     1.0    0.040502    0.451752    0.045697 Biso 1.000000  H     
 H8     1.0    0.585498    0.951752    0.578303 Biso 1.000000  H     
 H9     1.0    0.475455    0.504760    0.623032 Biso 1.000000  H     
 H10    1.0    0.150545    0.004760    0.000968 Biso 1.000000  H     
 H11    1.0    0.975455    0.504760    0.500968 Biso 1.000000  H     
 H12    1.0    0.650545    0.004760    0.123032 Biso 1.000000  H     
 H13    1.0    0.743261    0.334049    0.402003 Biso 1.000000  H     
 H14    1.0    0.882739    0.834049    0.221997 Biso 1.000000  H     
 H15    1.0    0.243261    0.334049    0.721997 Biso 1.000000  H     
 H16    1.0    0.382739    0.834049    0.902003 Biso 1.000000  H     
 H17    1.0    0.744291    0.308951    0.183524 Biso 1.000000  H     
 H18    1.0    0.881709    0.808951    0.440476 Biso 1.000000  H     
 H19    1.0    0.244291    0.308951    0.940476 Biso 1.000000  H     
 H20    1.0    0.381709    0.808951    0.683524 Biso 1.000000  H     
 H21    1.0    0.667935    0.208327    0.323629 Biso 1.000000  H     
 H22    1.0    0.958065    0.708327    0.300371 Biso 1.000000  H     
 H23    1.0    0.167935    0.208327    0.800371 Biso 1.000000  H     
 H24    1.0    0.458065    0.708327    0.823629 Biso 1.000000  H     
 H25    1.0    0.899190    0.158914    0.413974 Biso 1.000000  H     
 H26    1.0    0.726810    0.658914    0.210026 Biso 1.000000  H     
 H27    1.0    0.399190    0.158914    0.710026 Biso 1.000000  H     
 H28    1.0    0.226810    0.658914    0.913974 Biso 1.000000  H     
 H29    1.0    0.916890    0.172168    0.202515 Biso 1.000000  H     
 H30    1.0    0.709110    0.672168    0.421485 Biso 1.000000  H     
 H31    1.0    0.416890    0.172168    0.921484 Biso 1.000000  H     
 H32    1.0    0.209110    0.672168    0.702515 Biso 1.000000  H     
 N1     1.0    0.907888    0.218643    0.315464 Biso 1.000000  N     
 N2     1.0    0.718112    0.718643    0.308536 Biso 1.000000  N     
 N3     1.0    0.407888    0.218643    0.808536 Biso 1.000000  N     
 N4     1.0    0.218112    0.718643    0.815464 Biso 1.000000  N     
 N5     1.0    0.755374    0.270619    0.306097 Biso 1.000000  N     
 N6     1.0    0.870626    0.770619    0.317903 Biso 1.000000  N     
 N7     1.0    0.255374    0.270619    0.817903 Biso 1.000000  N     
 N8     1.0    0.370626    0.770619    0.806097 Biso 1.000000  N     
