_cell_length_a     8.6512
_cell_length_b    11.4883
_cell_length_c     7.7542
_cell_angle_alpha 90.0
_cell_angle_beta 90.0
_cell_angle_gamma 90.0
_space_group_IT_number                 1
 loop_
 _space_group_symop_operation_xyz 
 'x, y, z' 
 loop_ 
 _atom_site_label 
 _atom_site_occupancy 
 _atom_site_fract_x 
 _atom_site_fract_y
 _atom_site_fract_z
 _atom_site_adp_type
 _atom_site_U_iso_or_equiv
 _atom_site_type_symbol
 Zn1    1.0    0.280000    0.500000    0.312000 Biso 1.000000  Zn    
 Zn2    1.0    0.280000   -0.000000    0.312000 Biso 1.000000  Zn    
 Zn3    1.0    0.780000    0.500000    0.812000 Biso 1.000000  Zn    
 Zn4    1.0    0.780000   -0.000000    0.812000 Biso 1.000000  Zn    
 O1     1.0    0.245493    0.345015    0.166959 Biso 1.000000  O     
 O2     1.0    0.314507    0.845015    0.457041 Biso 1.000000  O     
 O3     1.0    0.745493    0.345015    0.957042 Biso 1.000000  O     
 O4     1.0    0.814508    0.845015    0.666959 Biso 1.000000  O     
 O5     1.0    0.245493    0.154985    0.166959 Biso 1.000000  O     
 O6     1.0    0.314507    0.654985    0.457041 Biso 1.000000  O     
 O7     1.0    0.745493    0.154985    0.957041 Biso 1.000000  O     
 O8     1.0    0.814507    0.654985    0.666958 Biso 1.000000  O     
 O9     1.0    0.371232    0.571742    0.080018 Biso 1.000000  O     
 O10    1.0    0.188769    0.071742    0.543982 Biso 1.000000  O     
 O11    1.0    0.871231    0.571742    0.043982 Biso 1.000000  O     
 O12    1.0    0.688769    0.071742    0.580018 Biso 1.000000  O     
 O13    1.0    0.562056    0.570571    0.885382 Biso 1.000000  O     
 O14    1.0   -0.002057    0.070571    0.738618 Biso 1.000000  O     
 O15    1.0    0.062057    0.570571    0.238617 Biso 1.000000  O     
 O16    1.0    0.497943    0.070571    0.385382 Biso 1.000000  O     
 O17    1.0    0.497943    0.429429    0.385382 Biso 1.000000  O     
 O18    1.0    0.062056    0.929429    0.238617 Biso 1.000000  O     
 O19    1.0    0.997943    0.429429    0.738618 Biso 1.000000  O     
 O20    1.0    0.562056    0.929429    0.885382 Biso 1.000000  O     
 O21    1.0    0.688769    0.428258    0.580018 Biso 1.000000  O     
 O22    1.0    0.871231    0.928258    0.043982 Biso 1.000000  O     
 O23    1.0    0.188769    0.428258    0.543982 Biso 1.000000  O     
 O24    1.0    0.371232    0.928258    0.080018 Biso 1.000000  O     
 C1     1.0    0.242847    0.250000    0.244954 Biso 1.000000  C     
 C2     1.0    0.317153    0.750000    0.379046 Biso 1.000000  C     
 C3     1.0    0.742847    0.250000    0.879046 Biso 1.000000  C     
 C4     1.0    0.817153    0.750000    0.744954 Biso 1.000000  C     
 C5     1.0    0.500781    0.536714    0.024407 Biso 1.000000  C     
 C6     1.0    0.059218    0.036715    0.599593 Biso 1.000000  C     
 C7     1.0    1.000781    0.536714    0.099593 Biso 1.000000  C     
 C8     1.0    0.559219    0.036715    0.524407 Biso 1.000000  C     
 C9     1.0    0.559219    0.463286    0.524407 Biso 1.000000  C     
 C10    1.0    0.000782    0.963286    0.099593 Biso 1.000000  C     
 C11    1.0    0.059219    0.463286    0.599593 Biso 1.000000  C     
 C12    1.0    0.500781    0.963286    0.024407 Biso 1.000000  C     
 H1     1.0    0.237850    0.250000    0.386963 Biso 1.000000  H     
 H2     1.0    0.322150    0.750000    0.237037 Biso 1.000000  H     
 H3     1.0    0.737850    0.250000    0.737037 Biso 1.000000  H     
 H4     1.0    0.822150    0.750000    0.886963 Biso 1.000000  H     
 H5     1.0    0.562523    0.473496    0.100667 Biso 1.000000  H     
 H6     1.0   -0.002523    0.973496    0.523332 Biso 1.000000  H     
 H7     1.0    0.062523    0.473496    0.023332 Biso 1.000000  H     
 H8     1.0    0.497476    0.973496    0.600668 Biso 1.000000  H     
 H9     1.0    0.497476    0.526504    0.600668 Biso 1.000000  H     
 H10    1.0    0.062523    0.026504    0.023333 Biso 1.000000  H     
 H11    1.0    0.997476    0.526504    0.523332 Biso 1.000000  H     
 H12    1.0    0.562523    0.026504    0.100667 Biso 1.000000  H     
 H13    1.0    0.707803    0.325192    0.197099 Biso 1.000000  H     
 H14    1.0    0.852197    0.825192    0.426901 Biso 1.000000  H     
 H15    1.0    0.207848    0.325412    0.926626 Biso 1.000000  H     
 H16    1.0    0.352152    0.825412    0.697374 Biso 1.000000  H     
 H17    1.0    0.709540    0.175611    0.197873 Biso 1.000000  H     
 H18    1.0    0.850460    0.675611    0.426127 Biso 1.000000  H     
 H19    1.0    0.209563    0.175830    0.926465 Biso 1.000000  H     
 H20    1.0    0.350437    0.675830    0.697535 Biso 1.000000  H     
 H21    1.0    0.635972    0.252174    0.369651 Biso 1.000000  H     
 H22    1.0    0.924028    0.752174    0.254349 Biso 1.000000  H     
 H23    1.0    0.135955    0.252078    0.754401 Biso 1.000000  H     
 H24    1.0    0.424045    0.752078    0.869599 Biso 1.000000  H     
 H25    1.0    0.868537    0.304822    0.451391 Biso 1.000000  H     
 H26    1.0    0.691463    0.804822    0.172609 Biso 1.000000  H     
 H27    1.0    0.368503    0.304553    0.672359 Biso 1.000000  H     
 H28    1.0    0.191497    0.804553    0.951641 Biso 1.000000  H     
 H29    1.0    0.885881    0.166254    0.396899 Biso 1.000000  H     
 H30    1.0    0.674119    0.666254    0.227101 Biso 1.000000  H     
 H31    1.0    0.385842    0.166087    0.727412 Biso 1.000000  H     
 H32    1.0    0.174158    0.666086    0.896588 Biso 1.000000  H     
 N1     1.0    0.875589    0.249062    0.347745 Biso 1.000000  N     
 N2     1.0    0.684411    0.749062    0.276255 Biso 1.000000  N     
 N3     1.0    0.375578    0.248986    0.776230 Biso 1.000000  N     
 N4     1.0    0.184422    0.748986    0.847770 Biso 1.000000  N     
 N5     1.0    0.721672    0.250957    0.273754 Biso 1.000000  N     
 N6     1.0    0.838328    0.750957    0.350246 Biso 1.000000  N     
 N7     1.0    0.221684    0.251033    0.850271 Biso 1.000000  N     
 N8     1.0    0.338316    0.751033    0.773729 Biso 1.000000  N     
