_cell_length_a     8.6512
_cell_length_b    11.4883
_cell_length_c     7.7542
_cell_angle_alpha 90.0
_cell_angle_beta 90.0
_cell_angle_gamma 90.0
_space_group_IT_number                 1
 loop_
 _space_group_symop_operation_xyz 
 'x, y, z' 
 loop_ 
 _atom_site_label 
 _atom_site_occupancy 
 _atom_site_fract_x 
 _atom_site_fract_y
 _atom_site_fract_z
 _atom_site_adp_type
 _atom_site_U_iso_or_equiv
 _atom_site_type_symbol
 Zn1    1.0    0.276138    0.500066    0.312345 Biso 1.000000  Zn    
 Zn2    1.0    0.336662    0.000066    0.311655 Biso 1.000000  Zn    
 Zn3    1.0    0.776138    0.500066    0.811655 Biso 1.000000  Zn    
 Zn4    1.0    0.836662    0.000066    0.812345 Biso 1.000000  Zn    
 O1     1.0    0.249415    0.344246    0.164267 Biso 1.000000  O     
 O2     1.0    0.363385    0.844246    0.459733 Biso 1.000000  O     
 O3     1.0    0.749415    0.344246    0.959734 Biso 1.000000  O     
 O4     1.0    0.863385    0.844246    0.664267 Biso 1.000000  O     
 O5     1.0    0.294370    0.154216    0.169650 Biso 1.000000  O     
 O6     1.0    0.318430    0.654216    0.454350 Biso 1.000000  O     
 O7     1.0    0.794370    0.154216    0.954350 Biso 1.000000  O     
 O8     1.0    0.818430    0.654216    0.669650 Biso 1.000000  O     
 O9     1.0    0.368267    0.572289    0.081331 Biso 1.000000  O     
 O10    1.0    0.244533    0.072289    0.542669 Biso 1.000000  O     
 O11    1.0    0.868267    0.572289    0.042669 Biso 1.000000  O     
 O12    1.0    0.744533    0.072289    0.581331 Biso 1.000000  O     
 O13    1.0    0.559290    0.572485    0.886713 Biso 1.000000  O     
 O14    1.0    0.053510    0.072485    0.737287 Biso 1.000000  O     
 O15    1.0    0.059290    0.572485    0.237287 Biso 1.000000  O     
 O16    1.0    0.553509    0.072485    0.386712 Biso 1.000000  O     
 O17    1.0    0.495177    0.431343    0.384053 Biso 1.000000  O     
 O18    1.0    0.117622    0.931343    0.239947 Biso 1.000000  O     
 O19    1.0    0.995177    0.431343    0.739948 Biso 1.000000  O     
 O20    1.0    0.617622    0.931343    0.884052 Biso 1.000000  O     
 O21    1.0    0.685804    0.428805    0.578705 Biso 1.000000  O     
 O22    1.0    0.926996    0.928805    0.045295 Biso 1.000000  O     
 O23    1.0    0.185804    0.428805    0.545295 Biso 1.000000  O     
 O24    1.0    0.426996    0.928805    0.078705 Biso 1.000000  O     
 C1     1.0    0.269247    0.249569    0.244954 Biso 1.000000  C     
 C2     1.0    0.343553    0.749569    0.379046 Biso 1.000000  C     
 C3     1.0    0.769247    0.249569    0.879046 Biso 1.000000  C     
 C4     1.0    0.843553    0.749569    0.744954 Biso 1.000000  C     
 C5     1.0    0.492168    0.531259    0.019245 Biso 1.000000  C     
 C6     1.0    0.120632    0.031259    0.604755 Biso 1.000000  C     
 C7     1.0    0.992168    0.531259    0.104755 Biso 1.000000  C     
 C8     1.0    0.620632    0.031259    0.519245 Biso 1.000000  C     
 C9     1.0    0.550605    0.457830    0.529569 Biso 1.000000  C     
 C10    1.0    0.062195    0.957830    0.094431 Biso 1.000000  C     
 C11    1.0    0.050605    0.457830    0.594431 Biso 1.000000  C     
 C12    1.0    0.562195    0.957830    0.029569 Biso 1.000000  C     
 H1     1.0    0.264250    0.251210    0.386963 Biso 1.000000  H     
 H2     1.0    0.348550    0.751210    0.237037 Biso 1.000000  H     
 H3     1.0    0.764250    0.251210    0.737037 Biso 1.000000  H     
 H4     1.0    0.848550    0.751210    0.886963 Biso 1.000000  H     
 H5     1.0    0.544906    0.456101    0.082776 Biso 1.000000  H     
 H6     1.0    0.067894    0.956101    0.541224 Biso 1.000000  H     
 H7     1.0    0.044906    0.456101    0.041224 Biso 1.000000  H     
 H8     1.0    0.567894    0.956101    0.582776 Biso 1.000000  H     
 H9     1.0    0.479859    0.509109    0.618559 Biso 1.000000  H     
 H10    1.0    0.132941    0.009109    0.005441 Biso 1.000000  H     
 H11    1.0    0.979859    0.509109    0.505441 Biso 1.000000  H     
 H12    1.0    0.632941    0.009109    0.118559 Biso 1.000000  H     
 H13    1.0    0.736753    0.348654    0.362059 Biso 1.000000  H     
 H14    1.0    0.876047    0.848654    0.261941 Biso 1.000000  H     
 H15    1.0    0.236752    0.348636    0.761863 Biso 1.000000  H     
 H16    1.0    0.376048    0.848636    0.862137 Biso 1.000000  H     
 H17    1.0    0.737110    0.283624    0.162474 Biso 1.000000  H     
 H18    1.0    0.875690    0.783624    0.461526 Biso 1.000000  H     
 H19    1.0    0.237119    0.283680    0.961502 Biso 1.000000  H     
 H20    1.0    0.375681    0.783680    0.662498 Biso 1.000000  H     
 H21    1.0    0.661467    0.213151    0.338791 Biso 1.000000  H     
 H22    1.0    0.951333    0.713151    0.285209 Biso 1.000000  H     
 H23    1.0    0.161464    0.213142    0.785248 Biso 1.000000  H     
 H24    1.0    0.451336    0.713142    0.838752 Biso 1.000000  H     
 H25    1.0    0.893142    0.182720    0.444842 Biso 1.000000  H     
 H26    1.0    0.719658    0.682720    0.179158 Biso 1.000000  H     
 H27    1.0    0.393133    0.182669    0.679204 Biso 1.000000  H     
 H28    1.0    0.219667    0.682669    0.944796 Biso 1.000000  H     
 H29    1.0    0.910100    0.155860    0.236159 Biso 1.000000  H     
 H30    1.0    0.702700    0.655860    0.387841 Biso 1.000000  H     
 H31    1.0    0.410103    0.155887    0.887907 Biso 1.000000  H     
 H32    1.0    0.202697    0.655887    0.736092 Biso 1.000000  H     
 N1     1.0    0.901366    0.221659    0.325608 Biso 1.000000  N     
 N2     1.0    0.711434    0.721659    0.298392 Biso 1.000000  N     
 N3     1.0    0.401364    0.221652    0.798406 Biso 1.000000  N     
 N4     1.0    0.211436    0.721652    0.825594 Biso 1.000000  N     
 N5     1.0    0.748696    0.269759    0.295940 Biso 1.000000  N     
 N6     1.0    0.864104    0.769759    0.328060 Biso 1.000000  N     
 N7     1.0    0.248698    0.269766    0.828046 Biso 1.000000  N     
 N8     1.0    0.364102    0.769766    0.795954 Biso 1.000000  N     
