_cell_length_a     8.8650
_cell_length_b    11.4457
_cell_length_c     7.6344
_cell_angle_alpha 90.0
_cell_angle_beta 90.0
_cell_angle_gamma 90.0
_space_group_IT_number                 1
 loop_
 _space_group_symop_operation_xyz 
 'x, y, z' 
 loop_ 
 _atom_site_label 
 _atom_site_occupancy 
 _atom_site_fract_x 
 _atom_site_fract_y
 _atom_site_fract_z
 _atom_site_adp_type
 _atom_site_U_iso_or_equiv
 _atom_site_type_symbol
 Mg1    1.0    0.243940    0.500618    0.328249 Biso 1.000000  Mg    
 Mg2    1.0    0.316860    0.000618    0.327751 Biso 1.000000  Mg    
 Mg3    1.0    0.743940    0.500618    0.827751 Biso 1.000000  Mg    
 Mg4    1.0    0.816860    0.000618    0.828249 Biso 1.000000  Mg    
 O1     1.0    0.216292    0.344055    0.184945 Biso 1.000000  O     
 O2     1.0    0.344508    0.844055    0.471055 Biso 1.000000  O     
 O3     1.0    0.716292    0.344055    0.971055 Biso 1.000000  O     
 O4     1.0    0.844508    0.844055    0.684945 Biso 1.000000  O     
 O5     1.0    0.272104    0.155407    0.192017 Biso 1.000000  O     
 O6     1.0    0.288696    0.655407    0.463983 Biso 1.000000  O     
 O7     1.0    0.772104    0.155407    0.963983 Biso 1.000000  O     
 O8     1.0    0.788696    0.655407    0.692017 Biso 1.000000  O     
 O9     1.0    0.344349    0.567145    0.101422 Biso 1.000000  O     
 O10    1.0    0.216451    0.067145    0.554578 Biso 1.000000  O     
 O11    1.0    0.844349    0.567145    0.054578 Biso 1.000000  O     
 O12    1.0    0.716451    0.067145    0.601422 Biso 1.000000  O     
 O13    1.0    0.539715    0.572483    0.914363 Biso 1.000000  O     
 O14    1.0    0.021085    0.072483    0.741637 Biso 1.000000  O     
 O15    1.0    0.039715    0.572483    0.241637 Biso 1.000000  O     
 O16    1.0    0.521085    0.072483    0.414363 Biso 1.000000  O     
 O17    1.0    0.450449    0.431341    0.410455 Biso 1.000000  O     
 O18    1.0    0.110350    0.931341    0.245545 Biso 1.000000  O     
 O19    1.0    0.950450    0.431341    0.745545 Biso 1.000000  O     
 O20    1.0    0.610350    0.931341    0.910455 Biso 1.000000  O     
 O21    1.0    0.644360    0.435683    0.599034 Biso 1.000000  O     
 O22    1.0    0.916440    0.935683    0.056966 Biso 1.000000  O     
 O23    1.0    0.144360    0.435683    0.556966 Biso 1.000000  O     
 O24    1.0    0.416440    0.935683    0.099034 Biso 1.000000  O     
 C1     1.0    0.238740    0.249659    0.265857 Biso 1.000000  C     
 C2     1.0    0.322060    0.749659    0.390143 Biso 1.000000  C     
 C3     1.0    0.738740    0.249659    0.890143 Biso 1.000000  C     
 C4     1.0    0.822060    0.749659    0.765857 Biso 1.000000  C     
 C5     1.0    0.466723    0.527811    0.040704 Biso 1.000000  C     
 C6     1.0    0.094077    0.027811    0.615296 Biso 1.000000  C     
 C7     1.0    0.966723    0.527811    0.115296 Biso 1.000000  C     
 C8     1.0    0.594077    0.027811    0.540704 Biso 1.000000  C     
 C9     1.0    0.509140    0.458461    0.555068 Biso 1.000000  C     
 C10    1.0    0.051660    0.958461    0.100932 Biso 1.000000  C     
 C11    1.0    0.009140    0.458461    0.600932 Biso 1.000000  C     
 C12    1.0    0.551660    0.958461    0.055068 Biso 1.000000  C     
 H1     1.0    0.228086    0.250638    0.409955 Biso 1.000000  H     
 H2     1.0    0.332714    0.750638    0.246045 Biso 1.000000  H     
 H3     1.0    0.728086    0.250638    0.746045 Biso 1.000000  H     
 H4     1.0    0.832714    0.750638    0.909955 Biso 1.000000  H     
 H5     1.0    0.513360    0.449465    0.100901 Biso 1.000000  H     
 H6     1.0    0.047440    0.949465    0.555099 Biso 1.000000  H     
 H7     1.0    0.013360    0.449465    0.055099 Biso 1.000000  H     
 H8     1.0    0.547440    0.949465    0.600901 Biso 1.000000  H     
 H9     1.0    0.440075    0.505735    0.649619 Biso 1.000000  H     
 H10    1.0    0.120725    0.005735    0.006381 Biso 1.000000  H     
 H11    1.0    0.940075    0.505735    0.506381 Biso 1.000000  H     
 H12    1.0    0.620725    0.005735    0.149619 Biso 1.000000  H     
 H13    1.0    0.692218    0.352559    0.379534 Biso 1.000000  H     
 H14    1.0    0.868582    0.852559    0.276466 Biso 1.000000  H     
 H15    1.0    0.192217    0.352539    0.776371 Biso 1.000000  H     
 H16    1.0    0.368583    0.852539    0.879629 Biso 1.000000  H     
 H17    1.0    0.696605    0.284022    0.179007 Biso 1.000000  H     
 H18    1.0    0.864195    0.784022    0.476993 Biso 1.000000  H     
 H19    1.0    0.196609    0.284087    0.976964 Biso 1.000000  H     
 H20    1.0    0.364191    0.784087    0.679036 Biso 1.000000  H     
 H21    1.0    0.624705    0.214251    0.361134 Biso 1.000000  H     
 H22    1.0    0.936095    0.714251    0.294866 Biso 1.000000  H     
 H23    1.0    0.124704    0.214239    0.794906 Biso 1.000000  H     
 H24    1.0    0.436096    0.714239    0.861094 Biso 1.000000  H     
 H25    1.0    0.851845    0.188761    0.467581 Biso 1.000000  H     
 H26    1.0    0.708955    0.688761    0.188419 Biso 1.000000  H     
 H27    1.0    0.351841    0.188703    0.688477 Biso 1.000000  H     
 H28    1.0    0.208959    0.688703    0.967523 Biso 1.000000  H     
 H29    1.0    0.871735    0.163712    0.255217 Biso 1.000000  H     
 H30    1.0    0.689065    0.663712    0.400783 Biso 1.000000  H     
 H31    1.0    0.371736    0.163744    0.900865 Biso 1.000000  H     
 H32    1.0    0.189064    0.663744    0.755135 Biso 1.000000  H     
 N1     1.0    0.858625    0.228839    0.346998 Biso 1.000000  N     
 N2     1.0    0.702175    0.728839    0.309002 Biso 1.000000  N     
 N3     1.0    0.358624    0.228832    0.809021 Biso 1.000000  N     
 N4     1.0    0.202176    0.728832    0.846979 Biso 1.000000  N     
 N5     1.0    0.707334    0.272517    0.315331 Biso 1.000000  N     
 N6     1.0    0.853466    0.772517    0.340669 Biso 1.000000  N     
 N7     1.0    0.207335    0.272524    0.840650 Biso 1.000000  N     
 N8     1.0    0.353465    0.772524    0.815350 Biso 1.000000  N     
