_cell_length_a     8.8650
_cell_length_b    11.4457
_cell_length_c     7.6344
_cell_angle_alpha 90.0
_cell_angle_beta 90.0
_cell_angle_gamma 90.0
_space_group_IT_number                 1
 loop_
 _space_group_symop_operation_xyz 
 'x, y, z' 
 loop_ 
 _atom_site_label 
 _atom_site_occupancy 
 _atom_site_fract_x 
 _atom_site_fract_y
 _atom_site_fract_z
 _atom_site_adp_type
 _atom_site_U_iso_or_equiv
 _atom_site_type_symbol
 Mg1    1.0    0.251485    0.500155    0.328062 Biso 1.000000  Mg    
 Mg2    1.0    0.269715    0.000155    0.327938 Biso 1.000000  Mg    
 Mg3    1.0    0.751485    0.500155    0.827938 Biso 1.000000  Mg    
 Mg4    1.0    0.769715    0.000155    0.828062 Biso 1.000000  Mg    
 O1     1.0    0.217422    0.344257    0.187597 Biso 1.000000  O     
 O2     1.0    0.303778    0.844257    0.468403 Biso 1.000000  O     
 O3     1.0    0.717422    0.344257    0.968403 Biso 1.000000  O     
 O4     1.0    0.803778    0.844257    0.687597 Biso 1.000000  O     
 O5     1.0    0.231374    0.155609    0.189365 Biso 1.000000  O     
 O6     1.0    0.289826    0.655609    0.466635 Biso 1.000000  O     
 O7     1.0    0.731374    0.155609    0.966635 Biso 1.000000  O     
 O8     1.0    0.789826    0.655609    0.689365 Biso 1.000000  O     
 O9     1.0    0.351583    0.566084    0.100526 Biso 1.000000  O     
 O10    1.0    0.169617    0.066084    0.555474 Biso 1.000000  O     
 O11    1.0    0.851583    0.566084    0.055474 Biso 1.000000  O     
 O12    1.0    0.669617    0.066084    0.600526 Biso 1.000000  O     
 O13    1.0    0.546403    0.571049    0.912897 Biso 1.000000  O     
 O14    1.0   -0.025203    0.071049    0.743103 Biso 1.000000  O     
 O15    1.0    0.046404    0.571049    0.243103 Biso 1.000000  O     
 O16    1.0    0.474797    0.071049    0.412897 Biso 1.000000  O     
 O17    1.0    0.457138    0.429907    0.411921 Biso 1.000000  O     
 O18    1.0    0.064062    0.929907    0.244079 Biso 1.000000  O     
 O19    1.0    0.957138    0.429907    0.744079 Biso 1.000000  O     
 O20    1.0    0.564062    0.929907    0.911921 Biso 1.000000  O     
 O21    1.0    0.651594    0.434622    0.599930 Biso 1.000000  O     
 O22    1.0    0.869606    0.934622    0.056070 Biso 1.000000  O     
 O23    1.0    0.151594    0.434622    0.556070 Biso 1.000000  O     
 O24    1.0    0.369606    0.934622    0.099930 Biso 1.000000  O     
 C1     1.0    0.218940    0.249915    0.265857 Biso 1.000000  C     
 C2     1.0    0.302260    0.749915    0.390143 Biso 1.000000  C     
 C3     1.0    0.718940    0.249915    0.890143 Biso 1.000000  C     
 C4     1.0    0.802260    0.749915    0.765857 Biso 1.000000  C     
 C5     1.0    0.478774    0.532959    0.046090 Biso 1.000000  C     
 C6     1.0    0.042426    0.032959    0.609910 Biso 1.000000  C     
 C7     1.0    0.978774    0.532959    0.109910 Biso 1.000000  C     
 C8     1.0    0.542426    0.032959    0.546090 Biso 1.000000  C     
 C9     1.0    0.521191    0.463609    0.549682 Biso 1.000000  C     
 C10    1.0    0.000009    0.963609    0.106318 Biso 1.000000  C     
 C11    1.0    0.021191    0.463609    0.606318 Biso 1.000000  C     
 C12    1.0    0.500009    0.963609    0.049682 Biso 1.000000  C     
 H1     1.0    0.208286    0.250159    0.409955 Biso 1.000000  H     
 H2     1.0    0.312914    0.750159    0.246045 Biso 1.000000  H     
 H3     1.0    0.708286    0.250159    0.746045 Biso 1.000000  H     
 H4     1.0    0.812914    0.750159    0.909955 Biso 1.000000  H     
 H5     1.0    0.533822    0.466265    0.119170 Biso 1.000000  H     
 H6     1.0   -0.012622    0.966265    0.536830 Biso 1.000000  H     
 H7     1.0    0.033822    0.466265    0.036830 Biso 1.000000  H     
 H8     1.0    0.487378    0.966265    0.619170 Biso 1.000000  H     
 H9     1.0    0.460537    0.522535    0.631350 Biso 1.000000  H     
 H10    1.0    0.060663    0.022535    0.024650 Biso 1.000000  H     
 H11    1.0    0.960537    0.522535    0.524650 Biso 1.000000  H     
 H12    1.0    0.560663    0.022535    0.131350 Biso 1.000000  H     
 H13    1.0    0.671789    0.342894    0.252437 Biso 1.000000  H     
 H14    1.0    0.849411    0.842894    0.403563 Biso 1.000000  H     
 H15    1.0    0.171801    0.343031    0.903216 Biso 1.000000  H     
 H16    1.0    0.349399    0.843031    0.752784 Biso 1.000000  H     
 H17    1.0    0.676333    0.198182    0.191631 Biso 1.000000  H     
 H18    1.0    0.844867    0.698182    0.464369 Biso 1.000000  H     
 H19    1.0    0.176343    0.198425    0.964580 Biso 1.000000  H     
 H20    1.0    0.344857    0.698425    0.691420 Biso 1.000000  H     
 H21    1.0    0.605207    0.239829    0.392536 Biso 1.000000  H     
 H22    1.0    0.915993    0.739829    0.263464 Biso 1.000000  H     
 H23    1.0    0.105201    0.239728    0.763524 Biso 1.000000  H     
 H24    1.0    0.415999    0.739728    0.892476 Biso 1.000000  H     
 H25    1.0    0.832690    0.275033    0.491510 Biso 1.000000  H     
 H26    1.0    0.688510    0.775033    0.164490 Biso 1.000000  H     
 H27    1.0    0.332677    0.274755    0.664386 Biso 1.000000  H     
 H28    1.0    0.188523    0.774755    0.991614 Biso 1.000000  H     
 H29    1.0    0.852416    0.154091    0.374718 Biso 1.000000  H     
 H30    1.0    0.668784    0.654091    0.281282 Biso 1.000000  H     
 H31    1.0    0.352408    0.154013    0.781642 Biso 1.000000  H     
 H32    1.0    0.168792    0.654013    0.874358 Biso 1.000000  H     
 N1     1.0    0.839000    0.243233    0.365471 Biso 1.000000  N     
 N2     1.0    0.682200    0.743233    0.290529 Biso 1.000000  N     
 N3     1.0    0.338997    0.243172    0.790547 Biso 1.000000  N     
 N4     1.0    0.182203    0.743172    0.865453 Biso 1.000000  N     
 N5     1.0    0.687359    0.257126    0.296815 Biso 1.000000  N     
 N6     1.0    0.833841    0.757126    0.359185 Biso 1.000000  N     
 N7     1.0    0.187362    0.257187    0.859167 Biso 1.000000  N     
 N8     1.0    0.333838    0.757187    0.796833 Biso 1.000000  N     
