_cell_length_a     8.8650
_cell_length_b    11.4457
_cell_length_c     7.6344
_cell_angle_alpha 90.0
_cell_angle_beta 90.0
_cell_angle_gamma 90.0
_space_group_IT_number                 1
 loop_
 _space_group_symop_operation_xyz 
 'x, y, z' 
 loop_ 
 _atom_site_label 
 _atom_site_occupancy 
 _atom_site_fract_x 
 _atom_site_fract_y
 _atom_site_fract_z
 _atom_site_adp_type
 _atom_site_U_iso_or_equiv
 _atom_site_type_symbol
 Mg1    1.0    0.248970    0.500309    0.328124 Biso 1.000000  Mg    
 Mg2    1.0    0.285430    0.000309    0.327876 Biso 1.000000  Mg    
 Mg3    1.0    0.748970    0.500309    0.827876 Biso 1.000000  Mg    
 Mg4    1.0    0.785430    0.000309    0.828124 Biso 1.000000  Mg    
 O1     1.0    0.217045    0.344190    0.186713 Biso 1.000000  O     
 O2     1.0    0.317355    0.844190    0.469287 Biso 1.000000  O     
 O3     1.0    0.717045    0.344190    0.969287 Biso 1.000000  O     
 O4     1.0    0.817355    0.844190    0.686713 Biso 1.000000  O     
 O5     1.0    0.244951    0.155542    0.190249 Biso 1.000000  O     
 O6     1.0    0.289449    0.655542    0.465751 Biso 1.000000  O     
 O7     1.0    0.744951    0.155542    0.965751 Biso 1.000000  O     
 O8     1.0    0.789449    0.655542    0.690249 Biso 1.000000  O     
 O9     1.0    0.349172    0.566438    0.100825 Biso 1.000000  O     
 O10    1.0    0.185228    0.066438    0.555175 Biso 1.000000  O     
 O11    1.0    0.849172    0.566438    0.055175 Biso 1.000000  O     
 O12    1.0    0.685228    0.066438    0.600825 Biso 1.000000  O     
 O13    1.0    0.544174    0.571527    0.913386 Biso 1.000000  O     
 O14    1.0   -0.009774    0.071527    0.742614 Biso 1.000000  O     
 O15    1.0    0.044174    0.571527    0.242614 Biso 1.000000  O     
 O16    1.0    0.490226    0.071527    0.413386 Biso 1.000000  O     
 O17    1.0    0.454908    0.430385    0.411432 Biso 1.000000  O     
 O18    1.0    0.079491    0.930385    0.244568 Biso 1.000000  O     
 O19    1.0    0.954909    0.430385    0.744568 Biso 1.000000  O     
 O20    1.0    0.579491    0.930385    0.911432 Biso 1.000000  O     
 O21    1.0    0.649183    0.434976    0.599631 Biso 1.000000  O     
 O22    1.0    0.885217    0.934976    0.056369 Biso 1.000000  O     
 O23    1.0    0.149183    0.434976    0.556369 Biso 1.000000  O     
 O24    1.0    0.385217    0.934976    0.099631 Biso 1.000000  O     
 C1     1.0    0.225540    0.249830    0.265857 Biso 1.000000  C     
 C2     1.0    0.308860    0.749830    0.390143 Biso 1.000000  C     
 C3     1.0    0.725540    0.249830    0.890143 Biso 1.000000  C     
 C4     1.0    0.808860    0.749830    0.765857 Biso 1.000000  C     
 C5     1.0    0.474757    0.531243    0.044295 Biso 1.000000  C     
 C6     1.0    0.059643    0.031243    0.611705 Biso 1.000000  C     
 C7     1.0    0.974757    0.531243    0.111705 Biso 1.000000  C     
 C8     1.0    0.559643    0.031243    0.544295 Biso 1.000000  C     
 C9     1.0    0.517174    0.461893    0.551477 Biso 1.000000  C     
 C10    1.0    0.017226    0.961893    0.104523 Biso 1.000000  C     
 C11    1.0    0.017174    0.461893    0.604523 Biso 1.000000  C     
 C12    1.0    0.517226    0.961893    0.051477 Biso 1.000000  C     
 H1     1.0    0.214886    0.250319    0.409955 Biso 1.000000  H     
 H2     1.0    0.319514    0.750319    0.246045 Biso 1.000000  H     
 H3     1.0    0.714886    0.250319    0.746045 Biso 1.000000  H     
 H4     1.0    0.819514    0.750319    0.909955 Biso 1.000000  H     
 H5     1.0    0.527001    0.460665    0.113080 Biso 1.000000  H     
 H6     1.0    0.007399    0.960665    0.542920 Biso 1.000000  H     
 H7     1.0    0.027001    0.460665    0.042920 Biso 1.000000  H     
 H8     1.0    0.507399    0.960665    0.613080 Biso 1.000000  H     
 H9     1.0    0.453716    0.516935    0.637440 Biso 1.000000  H     
 H10    1.0    0.080684    0.016935    0.018560 Biso 1.000000  H     
 H11    1.0    0.953716    0.516935    0.518560 Biso 1.000000  H     
 H12    1.0    0.580684    0.016935    0.137440 Biso 1.000000  H     
 H13    1.0    0.678698    0.353971    0.292991 Biso 1.000000  H     
 H14    1.0    0.855702    0.853971    0.363009 Biso 1.000000  H     
 H15    1.0    0.178704    0.354022    0.862717 Biso 1.000000  H     
 H16    1.0    0.355696    0.854022    0.793283 Biso 1.000000  H     
 H17    1.0    0.683006    0.225681    0.175617 Biso 1.000000  H     
 H18    1.0    0.851394    0.725681    0.480383 Biso 1.000000  H     
 H19    1.0    0.183016    0.225883    0.980462 Biso 1.000000  H     
 H20    1.0    0.351384    0.725883    0.675538 Biso 1.000000  H     
 H21    1.0    0.611703    0.229528    0.385841 Biso 1.000000  H     
 H22    1.0    0.922697    0.729528    0.270159 Biso 1.000000  H     
 H23    1.0    0.111699    0.229461    0.770234 Biso 1.000000  H     
 H24    1.0    0.422701    0.729461    0.885766 Biso 1.000000  H     
 H25    1.0    0.839130    0.245142    0.495694 Biso 1.000000  H     
 H26    1.0    0.695270    0.745142    0.160306 Biso 1.000000  H     
 H27    1.0    0.339118    0.244928    0.660315 Biso 1.000000  H     
 H28    1.0    0.195282    0.744928    0.995685 Biso 1.000000  H     
 H29    1.0    0.858747    0.149835    0.334119 Biso 1.000000  H     
 H30    1.0    0.675653    0.649835    0.321881 Biso 1.000000  H     
 H31    1.0    0.358744    0.149829    0.822164 Biso 1.000000  H     
 H32    1.0    0.175656    0.649829    0.833836 Biso 1.000000  H     
 N1     1.0    0.845539    0.237329    0.361456 Biso 1.000000  N     
 N2     1.0    0.688861    0.737329    0.294544 Biso 1.000000  N     
 N3     1.0    0.345536    0.237288    0.794575 Biso 1.000000  N     
 N4     1.0    0.188864    0.737288    0.861425 Biso 1.000000  N     
 N5     1.0    0.694020    0.263365    0.300843 Biso 1.000000  N     
 N6     1.0    0.840380    0.763365    0.355157 Biso 1.000000  N     
 N7     1.0    0.194023    0.263406    0.855126 Biso 1.000000  N     
 N8     1.0    0.340377    0.763406    0.800874 Biso 1.000000  N     
