_cell_length_a     8.8650
_cell_length_b    11.4457
_cell_length_c     7.6344
_cell_angle_alpha 90.0
_cell_angle_beta 90.0
_cell_angle_gamma 90.0
_space_group_IT_number                 1
 loop_
 _space_group_symop_operation_xyz 
 'x, y, z' 
 loop_ 
 _atom_site_label 
 _atom_site_occupancy 
 _atom_site_fract_x 
 _atom_site_fract_y
 _atom_site_fract_z
 _atom_site_adp_type
 _atom_site_U_iso_or_equiv
 _atom_site_type_symbol
 Mg1    1.0    0.256515    0.499845    0.327938 Biso 1.000000  Mg    
 Mg2    1.0    0.238285   -0.000155    0.328062 Biso 1.000000  Mg    
 Mg3    1.0    0.756515    0.499845    0.828062 Biso 1.000000  Mg    
 Mg4    1.0    0.738285   -0.000155    0.827938 Biso 1.000000  Mg    
 O1     1.0    0.218174    0.344391    0.189365 Biso 1.000000  O     
 O2     1.0    0.276626    0.844391    0.466635 Biso 1.000000  O     
 O3     1.0    0.718174    0.344391    0.966635 Biso 1.000000  O     
 O4     1.0    0.776626    0.844391    0.689365 Biso 1.000000  O     
 O5     1.0    0.204222    0.155743    0.187597 Biso 1.000000  O     
 O6     1.0    0.290578    0.655743    0.468403 Biso 1.000000  O     
 O7     1.0    0.704222    0.155743    0.968403 Biso 1.000000  O     
 O8     1.0    0.790578    0.655743    0.687597 Biso 1.000000  O     
 O9     1.0    0.356406    0.565378    0.099930 Biso 1.000000  O     
 O10    1.0    0.138394    0.065378    0.556070 Biso 1.000000  O     
 O11    1.0    0.856406    0.565378    0.056070 Biso 1.000000  O     
 O12    1.0    0.638394    0.065378    0.599930 Biso 1.000000  O     
 O13    1.0    0.550862    0.570093    0.911921 Biso 1.000000  O     
 O14    1.0   -0.056062    0.070093    0.744079 Biso 1.000000  O     
 O15    1.0    0.050862    0.570093    0.244079 Biso 1.000000  O     
 O16    1.0    0.443938    0.070093    0.411921 Biso 1.000000  O     
 O17    1.0    0.461596    0.428951    0.412897 Biso 1.000000  O     
 O18    1.0    0.033203    0.928951    0.243103 Biso 1.000000  O     
 O19    1.0    0.961597    0.428951    0.743103 Biso 1.000000  O     
 O20    1.0    0.533203    0.928951    0.912897 Biso 1.000000  O     
 O21    1.0    0.656417    0.433916    0.600526 Biso 1.000000  O     
 O22    1.0    0.838383    0.933916    0.055474 Biso 1.000000  O     
 O23    1.0    0.156417    0.433916    0.555474 Biso 1.000000  O     
 O24    1.0    0.338383    0.933916    0.100526 Biso 1.000000  O     
 C1     1.0    0.205740    0.250085    0.265857 Biso 1.000000  C     
 C2     1.0    0.289060    0.750085    0.390143 Biso 1.000000  C     
 C3     1.0    0.705740    0.250085    0.890143 Biso 1.000000  C     
 C4     1.0    0.789060    0.750085    0.765857 Biso 1.000000  C     
 C5     1.0    0.486809    0.536391    0.049682 Biso 1.000000  C     
 C6     1.0    0.007991    0.036391    0.606318 Biso 1.000000  C     
 C7     1.0    0.986809    0.536391    0.106318 Biso 1.000000  C     
 C8     1.0    0.507991    0.036391    0.549682 Biso 1.000000  C     
 C9     1.0    0.529226    0.467041    0.546090 Biso 1.000000  C     
 C10    1.0   -0.034426    0.967041    0.109910 Biso 1.000000  C     
 C11    1.0    0.029226    0.467041    0.609910 Biso 1.000000  C     
 C12    1.0    0.465574    0.967041    0.046090 Biso 1.000000  C     
 H1     1.0    0.195086    0.249841    0.409955 Biso 1.000000  H     
 H2     1.0    0.299714    0.749841    0.246045 Biso 1.000000  H     
 H3     1.0    0.695086    0.249841    0.746045 Biso 1.000000  H     
 H4     1.0    0.799714    0.749841    0.909955 Biso 1.000000  H     
 H5     1.0    0.547463    0.477465    0.131350 Biso 1.000000  H     
 H6     1.0   -0.052663    0.977465    0.524650 Biso 1.000000  H     
 H7     1.0    0.047463    0.477465    0.024650 Biso 1.000000  H     
 H8     1.0    0.447337    0.977465    0.631350 Biso 1.000000  H     
 H9     1.0    0.474178    0.533735    0.619170 Biso 1.000000  H     
 H10    1.0    0.020622    0.033735    0.036830 Biso 1.000000  H     
 H11    1.0    0.974178    0.533735    0.536830 Biso 1.000000  H     
 H12    1.0    0.520622    0.033735    0.119170 Biso 1.000000  H     
 H13    1.0    0.657878    0.301194    0.191805 Biso 1.000000  H     
 H14    1.0    0.836922    0.801194    0.464195 Biso 1.000000  H     
 H15    1.0    0.157901    0.301558    0.963913 Biso 1.000000  H     
 H16    1.0    0.336899    0.801558    0.692087 Biso 1.000000  H     
 H17    1.0    0.663408    0.156617    0.253218 Biso 1.000000  H     
 H18    1.0    0.831392    0.656617    0.402782 Biso 1.000000  H     
 H19    1.0    0.163410    0.156824    0.903337 Biso 1.000000  H     
 H20    1.0    0.331390    0.656824    0.752663 Biso 1.000000  H     
 H21    1.0    0.592125    0.261875    0.392246 Biso 1.000000  H     
 H22    1.0    0.902675    0.761875    0.263754 Biso 1.000000  H     
 H23    1.0    0.092118    0.261726    0.763713 Biso 1.000000  H     
 H24    1.0    0.402682    0.761726    0.892287 Biso 1.000000  H     
 H25    1.0    0.819422    0.327124    0.448156 Biso 1.000000  H     
 H26    1.0    0.675378    0.827124    0.207844 Biso 1.000000  H     
 H27    1.0    0.319414    0.326818    0.707385 Biso 1.000000  H     
 H28    1.0    0.175386    0.826818    0.948615 Biso 1.000000  H     
 H29    1.0    0.839927    0.183368    0.443153 Biso 1.000000  H     
 H30    1.0    0.654873    0.683368    0.212847 Biso 1.000000  H     
 H31    1.0    0.339906    0.183075    0.713217 Biso 1.000000  H     
 H32    1.0    0.154894    0.683075    0.942783 Biso 1.000000  H     
 N1     1.0    0.825872    0.256125    0.365535 Biso 1.000000  N     
 N2     1.0    0.668928    0.756125    0.290465 Biso 1.000000  N     
 N3     1.0    0.325868    0.256032    0.790415 Biso 1.000000  N     
 N4     1.0    0.168932    0.756032    0.865585 Biso 1.000000  N     
 N5     1.0    0.674087    0.243558    0.296732 Biso 1.000000  N     
 N6     1.0    0.820713    0.743558    0.359268 Biso 1.000000  N     
 N7     1.0    0.174091    0.243651    0.859318 Biso 1.000000  N     
 N8     1.0    0.320709    0.743651    0.796682 Biso 1.000000  N     
