_cell_length_a     8.8650
_cell_length_b    11.4457
_cell_length_c     7.6344
_cell_angle_alpha 90.0
_cell_angle_beta 90.0
_cell_angle_gamma 90.0
_space_group_IT_number                 1
 loop_
 _space_group_symop_operation_xyz 
 'x, y, z' 
 loop_ 
 _atom_site_label 
 _atom_site_occupancy 
 _atom_site_fract_x 
 _atom_site_fract_y
 _atom_site_fract_z
 _atom_site_adp_type
 _atom_site_U_iso_or_equiv
 _atom_site_type_symbol
 Mg1    1.0    0.254000    0.500000    0.328000 Biso 1.000000  Mg    
 Mg2    1.0    0.254000   -0.000000    0.328000 Biso 1.000000  Mg    
 Mg3    1.0    0.754000    0.500000    0.828000 Biso 1.000000  Mg    
 Mg4    1.0    0.754000   -0.000000    0.828000 Biso 1.000000  Mg    
 O1     1.0    0.217798    0.344324    0.188481 Biso 1.000000  O     
 O2     1.0    0.290202    0.844324    0.467519 Biso 1.000000  O     
 O3     1.0    0.717798    0.344324    0.967519 Biso 1.000000  O     
 O4     1.0    0.790202    0.844324    0.688481 Biso 1.000000  O     
 O5     1.0    0.217798    0.155676    0.188481 Biso 1.000000  O     
 O6     1.0    0.290202    0.655676    0.467519 Biso 1.000000  O     
 O7     1.0    0.717798    0.155676    0.967519 Biso 1.000000  O     
 O8     1.0    0.790202    0.655676    0.688481 Biso 1.000000  O     
 O9     1.0    0.353994    0.565731    0.100228 Biso 1.000000  O     
 O10    1.0    0.154005    0.065731    0.555772 Biso 1.000000  O     
 O11    1.0    0.853994    0.565731    0.055772 Biso 1.000000  O     
 O12    1.0    0.654006    0.065731    0.600228 Biso 1.000000  O     
 O13    1.0    0.548633    0.570571    0.912409 Biso 1.000000  O     
 O14    1.0   -0.040633    0.070571    0.743591 Biso 1.000000  O     
 O15    1.0    0.048633    0.570571    0.243591 Biso 1.000000  O     
 O16    1.0    0.459368    0.070571    0.412409 Biso 1.000000  O     
 O17    1.0    0.459367    0.429429    0.412409 Biso 1.000000  O     
 O18    1.0    0.048632    0.929429    0.243591 Biso 1.000000  O     
 O19    1.0    0.959367    0.429429    0.743591 Biso 1.000000  O     
 O20    1.0    0.548632    0.929429    0.912409 Biso 1.000000  O     
 O21    1.0    0.654006    0.434269    0.600228 Biso 1.000000  O     
 O22    1.0    0.853994    0.934269    0.055772 Biso 1.000000  O     
 O23    1.0    0.154005    0.434269    0.555772 Biso 1.000000  O     
 O24    1.0    0.353994    0.934269    0.100228 Biso 1.000000  O     
 C1     1.0    0.212340    0.250000    0.265857 Biso 1.000000  C     
 C2     1.0    0.295660    0.750000    0.390143 Biso 1.000000  C     
 C3     1.0    0.712340    0.250000    0.890143 Biso 1.000000  C     
 C4     1.0    0.795660    0.750000    0.765857 Biso 1.000000  C     
 C5     1.0    0.482792    0.534675    0.047886 Biso 1.000000  C     
 C6     1.0    0.025209    0.034675    0.608114 Biso 1.000000  C     
 C7     1.0    0.982792    0.534675    0.108114 Biso 1.000000  C     
 C8     1.0    0.525208    0.034675    0.547886 Biso 1.000000  C     
 C9     1.0    0.525208    0.465325    0.547886 Biso 1.000000  C     
 C10    1.0   -0.017208    0.965325    0.108114 Biso 1.000000  C     
 C11    1.0    0.025208    0.465325    0.608114 Biso 1.000000  C     
 C12    1.0    0.482791    0.965325    0.047886 Biso 1.000000  C     
 H1     1.0    0.201686    0.250000    0.409955 Biso 1.000000  H     
 H2     1.0    0.306314    0.750000    0.246045 Biso 1.000000  H     
 H3     1.0    0.701686    0.250000    0.746045 Biso 1.000000  H     
 H4     1.0    0.806314    0.750000    0.909955 Biso 1.000000  H     
 H5     1.0    0.540642    0.471865    0.125260 Biso 1.000000  H     
 H6     1.0   -0.032643    0.971865    0.530740 Biso 1.000000  H     
 H7     1.0    0.040642    0.471865    0.030740 Biso 1.000000  H     
 H8     1.0    0.467357    0.971865    0.625260 Biso 1.000000  H     
 H9     1.0    0.467357    0.528135    0.625260 Biso 1.000000  H     
 H10    1.0    0.040642    0.028135    0.030740 Biso 1.000000  H     
 H11    1.0    0.967358    0.528135    0.530740 Biso 1.000000  H     
 H12    1.0    0.540643    0.028135    0.125260 Biso 1.000000  H     
 H13    1.0    0.664831    0.324855    0.217839 Biso 1.000000  H     
 H14    1.0    0.843169    0.824855    0.438161 Biso 1.000000  H     
 H15    1.0    0.164849    0.325102    0.937813 Biso 1.000000  H     
 H16    1.0    0.343151    0.825102    0.718187 Biso 1.000000  H     
 H17    1.0    0.669795    0.174576    0.218157 Biso 1.000000  H     
 H18    1.0    0.838205    0.674576    0.437843 Biso 1.000000  H     
 H19    1.0    0.169802    0.174822    0.938220 Biso 1.000000  H     
 H20    1.0    0.338198    0.674822    0.717780 Biso 1.000000  H     
 H21    1.0    0.598688    0.250893    0.394718 Biso 1.000000  H     
 H22    1.0    0.909312    0.750893    0.261282 Biso 1.000000  H     
 H23    1.0    0.098681    0.250763    0.761302 Biso 1.000000  H     
 H24    1.0    0.409319    0.750763    0.894698 Biso 1.000000  H     
 H25    1.0    0.826132    0.303065    0.475261 Biso 1.000000  H     
 H26    1.0    0.681868    0.803065    0.180739 Biso 1.000000  H     
 H27    1.0    0.326119    0.302752    0.680474 Biso 1.000000  H     
 H28    1.0    0.181881    0.802752    0.975526 Biso 1.000000  H     
 H29    1.0    0.846158    0.165559    0.411999 Biso 1.000000  H     
 H30    1.0    0.661842    0.665559    0.244001 Biso 1.000000  H     
 H31    1.0    0.346143    0.165382    0.744396 Biso 1.000000  H     
 H32    1.0    0.161857    0.665382    0.911604 Biso 1.000000  H     
 N1     1.0    0.832448    0.249663    0.366869 Biso 1.000000  N     
 N2     1.0    0.675552    0.749663    0.289131 Biso 1.000000  N     
 N3     1.0    0.332444    0.249583    0.789121 Biso 1.000000  N     
 N4     1.0    0.175556    0.749583    0.866879 Biso 1.000000  N     
 N5     1.0    0.680710    0.250359    0.295406 Biso 1.000000  N     
 N6     1.0    0.827290    0.750359    0.360594 Biso 1.000000  N     
 N7     1.0    0.180714    0.250439    0.860604 Biso 1.000000  N     
 N8     1.0    0.327286    0.750439    0.795396 Biso 1.000000  N     
