_cell_length_a     8.8650
_cell_length_b    11.4457
_cell_length_c     7.6344
_cell_angle_alpha 90.0
_cell_angle_beta 90.0
_cell_angle_gamma 90.0
_space_group_IT_number                 1
 loop_
 _space_group_symop_operation_xyz 
 'x, y, z' 
 loop_ 
 _atom_site_label 
 _atom_site_occupancy 
 _atom_site_fract_x 
 _atom_site_fract_y
 _atom_site_fract_z
 _atom_site_adp_type
 _atom_site_U_iso_or_equiv
 _atom_site_type_symbol
 Mg1    1.0    0.259030    0.499691    0.327876 Biso 1.000000  Mg    
 Mg2    1.0    0.222570   -0.000309    0.328124 Biso 1.000000  Mg    
 Mg3    1.0    0.759030    0.499691    0.828124 Biso 1.000000  Mg    
 Mg4    1.0    0.722570   -0.000309    0.827876 Biso 1.000000  Mg    
 O1     1.0    0.218551    0.344458    0.190249 Biso 1.000000  O     
 O2     1.0    0.263049    0.844458    0.465751 Biso 1.000000  O     
 O3     1.0    0.718551    0.344458    0.965751 Biso 1.000000  O     
 O4     1.0    0.763049    0.844458    0.690249 Biso 1.000000  O     
 O5     1.0    0.190645    0.155810    0.186713 Biso 1.000000  O     
 O6     1.0    0.290955    0.655810    0.469287 Biso 1.000000  O     
 O7     1.0    0.690645    0.155810    0.969287 Biso 1.000000  O     
 O8     1.0    0.790955    0.655810    0.686713 Biso 1.000000  O     
 O9     1.0    0.358817    0.565024    0.099631 Biso 1.000000  O     
 O10    1.0    0.122783    0.065024    0.556369 Biso 1.000000  O     
 O11    1.0    0.858817    0.565024    0.056369 Biso 1.000000  O     
 O12    1.0    0.622783    0.065024    0.599631 Biso 1.000000  O     
 O13    1.0    0.553091    0.569615    0.911432 Biso 1.000000  O     
 O14    1.0   -0.071491    0.069615    0.744568 Biso 1.000000  O     
 O15    1.0    0.053092    0.569615    0.244568 Biso 1.000000  O     
 O16    1.0    0.428509    0.069615    0.411432 Biso 1.000000  O     
 O17    1.0    0.463826    0.428473    0.413386 Biso 1.000000  O     
 O18    1.0    0.017774    0.928473    0.242614 Biso 1.000000  O     
 O19    1.0    0.963826    0.428473    0.742614 Biso 1.000000  O     
 O20    1.0    0.517774    0.928473    0.913386 Biso 1.000000  O     
 O21    1.0    0.658828    0.433562    0.600825 Biso 1.000000  O     
 O22    1.0    0.822772    0.933562    0.055175 Biso 1.000000  O     
 O23    1.0    0.158828    0.433562    0.555175 Biso 1.000000  O     
 O24    1.0    0.322772    0.933562    0.100825 Biso 1.000000  O     
 C1     1.0    0.199140    0.250170    0.265857 Biso 1.000000  C     
 C2     1.0    0.282460    0.750170    0.390143 Biso 1.000000  C     
 C3     1.0    0.699140    0.250170    0.890143 Biso 1.000000  C     
 C4     1.0    0.782460    0.750170    0.765857 Biso 1.000000  C     
 C5     1.0    0.490826    0.538107    0.051477 Biso 1.000000  C     
 C6     1.0   -0.009226    0.038107    0.604523 Biso 1.000000  C     
 C7     1.0    0.990826    0.538107    0.104523 Biso 1.000000  C     
 C8     1.0    0.490774    0.038107    0.551477 Biso 1.000000  C     
 C9     1.0    0.533243    0.468757    0.544295 Biso 1.000000  C     
 C10    1.0   -0.051643    0.968757    0.111705 Biso 1.000000  C     
 C11    1.0    0.033243    0.468757    0.611705 Biso 1.000000  C     
 C12    1.0    0.448357    0.968757    0.044295 Biso 1.000000  C     
 H1     1.0    0.188486    0.249681    0.409955 Biso 1.000000  H     
 H2     1.0    0.293114    0.749681    0.246045 Biso 1.000000  H     
 H3     1.0    0.688486    0.249681    0.746045 Biso 1.000000  H     
 H4     1.0    0.793114    0.749681    0.909955 Biso 1.000000  H     
 H5     1.0    0.554284    0.483065    0.137440 Biso 1.000000  H     
 H6     1.0   -0.072684    0.983065    0.518560 Biso 1.000000  H     
 H7     1.0    0.054284    0.483065    0.018560 Biso 1.000000  H     
 H8     1.0    0.427316    0.983065    0.637440 Biso 1.000000  H     
 H9     1.0    0.480999    0.539335    0.613080 Biso 1.000000  H     
 H10    1.0    0.000601    0.039335    0.042920 Biso 1.000000  H     
 H11    1.0    0.980999    0.539335    0.542920 Biso 1.000000  H     
 H12    1.0    0.500601    0.039335    0.113080 Biso 1.000000  H     
 H13    1.0    0.650986    0.273671    0.176300 Biso 1.000000  H     
 H14    1.0    0.830614    0.773671    0.479700 Biso 1.000000  H     
 H15    1.0    0.151013    0.274142    0.979555 Biso 1.000000  H     
 H16    1.0    0.330587    0.774142    0.676445 Biso 1.000000  H     
 H17    1.0    0.657173    0.145640    0.294197 Biso 1.000000  H     
 H18    1.0    0.824427    0.645640    0.361803 Biso 1.000000  H     
 H19    1.0    0.157167    0.145758    0.862523 Biso 1.000000  H     
 H20    1.0    0.324433    0.645758    0.793477 Biso 1.000000  H     
 H21    1.0    0.585505    0.271935    0.385328 Biso 1.000000  H     
 H22    1.0    0.896095    0.771935    0.270672 Biso 1.000000  H     
 H23    1.0    0.085499    0.271783    0.770554 Biso 1.000000  H     
 H24    1.0    0.396101    0.771783    0.885446 Biso 1.000000  H     
 H25    1.0    0.812546    0.345394    0.412219 Biso 1.000000  H     
 H26    1.0    0.669054    0.845394    0.243781 Biso 1.000000  H     
 H27    1.0    0.312544    0.345145    0.743120 Biso 1.000000  H     
 H28    1.0    0.169056    0.845145    0.912880 Biso 1.000000  H     
 H29    1.0    0.833671    0.206172    0.465830 Biso 1.000000  H     
 H30    1.0    0.647929    0.706172    0.190170 Biso 1.000000  H     
 H31    1.0    0.333645    0.205762    0.690446 Biso 1.000000  H     
 H32    1.0    0.147955    0.705762    0.965554 Biso 1.000000  H     
 N1     1.0    0.819261    0.262124    0.361559 Biso 1.000000  N     
 N2     1.0    0.662339    0.762124    0.294441 Biso 1.000000  N     
 N3     1.0    0.319258    0.262028    0.794342 Biso 1.000000  N     
 N4     1.0    0.162342    0.762028    0.861658 Biso 1.000000  N     
 N5     1.0    0.667497    0.237219    0.300705 Biso 1.000000  N     
 N6     1.0    0.814103    0.737219    0.355295 Biso 1.000000  N     
 N7     1.0    0.167501    0.237316    0.855395 Biso 1.000000  N     
 N8     1.0    0.314099    0.737316    0.800605 Biso 1.000000  N     
