_cell_length_a     8.8650
_cell_length_b    11.4457
_cell_length_c     7.6344
_cell_angle_alpha 90.0
_cell_angle_beta 90.0
_cell_angle_gamma 90.0
_space_group_IT_number                 1
 loop_
 _space_group_symop_operation_xyz 
 'x, y, z' 
 loop_ 
 _atom_site_label 
 _atom_site_occupancy 
 _atom_site_fract_x 
 _atom_site_fract_y
 _atom_site_fract_z
 _atom_site_adp_type
 _atom_site_U_iso_or_equiv
 _atom_site_type_symbol
 Mg1    1.0    0.266575    0.499227    0.327689 Biso 1.000000  Mg    
 Mg2    1.0    0.175425   -0.000773    0.328311 Biso 1.000000  Mg    
 Mg3    1.0    0.766575    0.499227    0.828311 Biso 1.000000  Mg    
 Mg4    1.0    0.675425   -0.000773    0.827689 Biso 1.000000  Mg    
 O1     1.0    0.219680    0.344660    0.192901 Biso 1.000000  O     
 O2     1.0    0.222320    0.844660    0.463099 Biso 1.000000  O     
 O3     1.0    0.719680    0.344660    0.963099 Biso 1.000000  O     
 O4     1.0    0.722320    0.844660    0.692901 Biso 1.000000  O     
 O5     1.0    0.149916    0.156012    0.184061 Biso 1.000000  O     
 O6     1.0    0.292084    0.656012    0.471939 Biso 1.000000  O     
 O7     1.0    0.649916    0.156012    0.971939 Biso 1.000000  O     
 O8     1.0    0.792084    0.656012    0.684061 Biso 1.000000  O     
 O9     1.0    0.366051    0.563964    0.098736 Biso 1.000000  O     
 O10    1.0    0.075949    0.063964    0.557264 Biso 1.000000  O     
 O11    1.0    0.866051    0.563964    0.057264 Biso 1.000000  O     
 O12    1.0    0.575949    0.063964    0.598736 Biso 1.000000  O     
 O13    1.0    0.559779    0.568181    0.909967 Biso 1.000000  O     
 O14    1.0   -0.117779    0.068181    0.746033 Biso 1.000000  O     
 O15    1.0    0.059780    0.568181    0.246033 Biso 1.000000  O     
 O16    1.0    0.382221    0.068181    0.409967 Biso 1.000000  O     
 O17    1.0    0.470514    0.427039    0.414851 Biso 1.000000  O     
 O18    1.0   -0.028514    0.927039    0.241149 Biso 1.000000  O     
 O19    1.0    0.970514    0.427039    0.741149 Biso 1.000000  O     
 O20    1.0    0.471486    0.927039    0.914851 Biso 1.000000  O     
 O21    1.0    0.666062    0.432502    0.601720 Biso 1.000000  O     
 O22    1.0    0.775938    0.932502    0.054280 Biso 1.000000  O     
 O23    1.0    0.166062    0.432502    0.554280 Biso 1.000000  O     
 O24    1.0    0.275938    0.932502    0.101720 Biso 1.000000  O     
 C1     1.0    0.179340    0.250426    0.265857 Biso 1.000000  C     
 C2     1.0    0.262660    0.750426    0.390143 Biso 1.000000  C     
 C3     1.0    0.679340    0.250426    0.890143 Biso 1.000000  C     
 C4     1.0    0.762660    0.750426    0.765857 Biso 1.000000  C     
 C5     1.0    0.502877    0.543255    0.056864 Biso 1.000000  C     
 C6     1.0   -0.060877    0.043255    0.599136 Biso 1.000000  C     
 C7     1.0    1.002877    0.543255    0.099136 Biso 1.000000  C     
 C8     1.0    0.439123    0.043255    0.556864 Biso 1.000000  C     
 C9     1.0    0.545294    0.473905    0.538908 Biso 1.000000  C     
 C10    1.0   -0.103294    0.973905    0.117092 Biso 1.000000  C     
 C11    1.0    0.045294    0.473905    0.617092 Biso 1.000000  C     
 C12    1.0    0.396706    0.973905    0.038908 Biso 1.000000  C     
 H1     1.0    0.168686    0.249203    0.409955 Biso 1.000000  H     
 H2     1.0    0.273314    0.749203    0.246045 Biso 1.000000  H     
 H3     1.0    0.668686    0.249203    0.746045 Biso 1.000000  H     
 H4     1.0    0.773314    0.749203    0.909955 Biso 1.000000  H     
 H5     1.0    0.574746    0.499865    0.155709 Biso 1.000000  H     
 H6     1.0   -0.132746    0.999865    0.500291 Biso 1.000000  H     
 H7     1.0    0.074746    0.499865    0.000291 Biso 1.000000  H     
 H8     1.0    0.367254    0.999865    0.655709 Biso 1.000000  H     
 H9     1.0    0.501461    0.556135    0.594811 Biso 1.000000  H     
 H10    1.0   -0.059461    0.056135    0.061189 Biso 1.000000  H     
 H11    1.0    1.001461    0.556135    0.561189 Biso 1.000000  H     
 H12    1.0    0.440539    0.056135    0.094811 Biso 1.000000  H     
 H13    1.0    0.631191    0.188943    0.200305 Biso 1.000000  H     
 H14    1.0    0.810809    0.688943    0.455695 Biso 1.000000  H     
 H15    1.0    0.131207    0.189518    0.956301 Biso 1.000000  H     
 H16    1.0    0.310793    0.689518    0.699699 Biso 1.000000  H     
 H17    1.0    0.639073    0.159750    0.421203 Biso 1.000000  H     
 H18    1.0    0.802927    0.659750    0.234797 Biso 1.000000  H     
 H19    1.0    0.139035    0.159375    0.735687 Biso 1.000000  H     
 H20    1.0    0.302965    0.659375    0.920313 Biso 1.000000  H     
 H21    1.0    0.565244    0.289574    0.344719 Biso 1.000000  H     
 H22    1.0    0.876756    0.789574    0.311281 Biso 1.000000  H     
 H23    1.0    0.065249    0.289534    0.810937 Biso 1.000000  H     
 H24    1.0    0.376751    0.789534    0.845063 Biso 1.000000  H     
 H25    1.0    0.791071    0.354413    0.280343 Biso 1.000000  H     
 H26    1.0    0.650929    0.854413    0.375657 Biso 1.000000  H     
 H27    1.0    0.291103    0.354620    0.874620 Biso 1.000000  H     
 H28    1.0    0.150897    0.854620    0.781380 Biso 1.000000  H     
 H29    1.0    0.814215    0.286267    0.469769 Biso 1.000000  H     
 H30    1.0    0.627785    0.786267    0.186231 Biso 1.000000  H     
 H31    1.0    0.314192    0.285660    0.685850 Biso 1.000000  H     
 H32    1.0    0.127808    0.785660    0.970150 Biso 1.000000  H     
 N1     1.0    0.799191    0.273111    0.337497 Biso 1.000000  N     
 N2     1.0    0.642809    0.773111    0.318503 Biso 1.000000  N     
 N3     1.0    0.299195    0.273074    0.818251 Biso 1.000000  N     
 N4     1.0    0.142805    0.773074    0.837749 Biso 1.000000  N     
 N5     1.0    0.647968    0.225215    0.324779 Biso 1.000000  N     
 N6     1.0    0.794032    0.725215    0.331221 Biso 1.000000  N     
 N7     1.0    0.147964    0.225252    0.831474 Biso 1.000000  N     
 N8     1.0    0.294036    0.725252    0.824526 Biso 1.000000  N     
