_cell_length_a     8.8650
_cell_length_b    11.4457
_cell_length_c     7.6344
_cell_angle_alpha 90.0
_cell_angle_beta 90.0
_cell_angle_gamma 90.0
_space_group_IT_number                 1
 loop_
 _space_group_symop_operation_xyz 
 'x, y, z' 
 loop_ 
 _atom_site_label 
 _atom_site_occupancy 
 _atom_site_fract_x 
 _atom_site_fract_y
 _atom_site_fract_z
 _atom_site_adp_type
 _atom_site_U_iso_or_equiv
 _atom_site_type_symbol
 Mg1    1.0    0.264060    0.499382    0.327751 Biso 1.000000  Mg    
 Mg2    1.0    0.191140   -0.000618    0.328249 Biso 1.000000  Mg    
 Mg3    1.0    0.764060    0.499382    0.828249 Biso 1.000000  Mg    
 Mg4    1.0    0.691140   -0.000618    0.827751 Biso 1.000000  Mg    
 O1     1.0    0.219304    0.344593    0.192017 Biso 1.000000  O     
 O2     1.0    0.235896    0.844593    0.463983 Biso 1.000000  O     
 O3     1.0    0.719304    0.344593    0.963983 Biso 1.000000  O     
 O4     1.0    0.735896    0.844593    0.692017 Biso 1.000000  O     
 O5     1.0    0.163492    0.155945    0.184945 Biso 1.000000  O     
 O6     1.0    0.291708    0.655945    0.471055 Biso 1.000000  O     
 O7     1.0    0.663492    0.155945    0.971055 Biso 1.000000  O     
 O8     1.0    0.791708    0.655945    0.684945 Biso 1.000000  O     
 O9     1.0    0.363640    0.564317    0.099034 Biso 1.000000  O     
 O10    1.0    0.091560    0.064317    0.556966 Biso 1.000000  O     
 O11    1.0    0.863640    0.564317    0.056966 Biso 1.000000  O     
 O12    1.0    0.591560    0.064317    0.599034 Biso 1.000000  O     
 O13    1.0    0.557550    0.568659    0.910455 Biso 1.000000  O     
 O14    1.0   -0.102350    0.068659    0.745545 Biso 1.000000  O     
 O15    1.0    0.057551    0.568659    0.245545 Biso 1.000000  O     
 O16    1.0    0.397650    0.068659    0.410455 Biso 1.000000  O     
 O17    1.0    0.468285    0.427517    0.414363 Biso 1.000000  O     
 O18    1.0   -0.013085    0.927517    0.241637 Biso 1.000000  O     
 O19    1.0    0.968285    0.427517    0.741637 Biso 1.000000  O     
 O20    1.0    0.486915    0.927517    0.914363 Biso 1.000000  O     
 O21    1.0    0.663651    0.432855    0.601422 Biso 1.000000  O     
 O22    1.0    0.791549    0.932855    0.054578 Biso 1.000000  O     
 O23    1.0    0.163651    0.432855    0.554578 Biso 1.000000  O     
 O24    1.0    0.291549    0.932855    0.101422 Biso 1.000000  O     
 C1     1.0    0.185940    0.250341    0.265857 Biso 1.000000  C     
 C2     1.0    0.269260    0.750341    0.390143 Biso 1.000000  C     
 C3     1.0    0.685940    0.250341    0.890143 Biso 1.000000  C     
 C4     1.0    0.769260    0.750341    0.765857 Biso 1.000000  C     
 C5     1.0    0.498860    0.541539    0.055068 Biso 1.000000  C     
 C6     1.0   -0.043660    0.041539    0.600932 Biso 1.000000  C     
 C7     1.0    0.998860    0.541539    0.100932 Biso 1.000000  C     
 C8     1.0    0.456340    0.041539    0.555068 Biso 1.000000  C     
 C9     1.0    0.541277    0.472189    0.540704 Biso 1.000000  C     
 C10    1.0   -0.086077    0.972189    0.115296 Biso 1.000000  C     
 C11    1.0    0.041277    0.472189    0.615296 Biso 1.000000  C     
 C12    1.0    0.413923    0.972189    0.040704 Biso 1.000000  C     
 H1     1.0    0.175286    0.249362    0.409955 Biso 1.000000  H     
 H2     1.0    0.279914    0.749362    0.246045 Biso 1.000000  H     
 H3     1.0    0.675286    0.249362    0.746045 Biso 1.000000  H     
 H4     1.0    0.779914    0.749362    0.909955 Biso 1.000000  H     
 H5     1.0    0.567925    0.494265    0.149619 Biso 1.000000  H     
 H6     1.0   -0.112725    0.994265    0.506381 Biso 1.000000  H     
 H7     1.0    0.067925    0.494265    0.006381 Biso 1.000000  H     
 H8     1.0    0.387275    0.994265    0.649619 Biso 1.000000  H     
 H9     1.0    0.494640    0.550535    0.600901 Biso 1.000000  H     
 H10    1.0   -0.039440    0.050535    0.055099 Biso 1.000000  H     
 H11    1.0    0.994640    0.550535    0.555099 Biso 1.000000  H     
 H12    1.0    0.460560    0.050535    0.100901 Biso 1.000000  H     
 H13    1.0    0.637603    0.215373    0.180703 Biso 1.000000  H     
 H14    1.0    0.817597    0.715373    0.475297 Biso 1.000000  H     
 H15    1.0    0.137626    0.215965    0.975614 Biso 1.000000  H     
 H16    1.0    0.317574    0.715965    0.680386 Biso 1.000000  H     
 H17    1.0    0.645054    0.147282    0.381449 Biso 1.000000  H     
 H18    1.0    0.810146    0.647282    0.274551 Biso 1.000000  H     
 H19    1.0    0.145027    0.147098    0.775460 Biso 1.000000  H     
 H20    1.0    0.310173    0.647098    0.880540 Biso 1.000000  H     
 H21    1.0    0.572061    0.286341    0.360616 Biso 1.000000  H     
 H22    1.0    0.883139    0.786341    0.295384 Biso 1.000000  H     
 H23    1.0    0.072062    0.286243    0.795105 Biso 1.000000  H     
 H24    1.0    0.383138    0.786243    0.860895 Biso 1.000000  H     
 H25    1.0    0.798334    0.359582    0.325054 Biso 1.000000  H     
 H26    1.0    0.656866    0.859582    0.330946 Biso 1.000000  H     
 H27    1.0    0.298354    0.359596    0.829970 Biso 1.000000  H     
 H28    1.0    0.156846    0.859596    0.826030 Biso 1.000000  H     
 H29    1.0    0.820861    0.259637    0.479670 Biso 1.000000  H     
 H30    1.0    0.634339    0.759637    0.176330 Biso 1.000000  H     
 H31    1.0    0.320834    0.259054    0.676220 Biso 1.000000  H     
 H32    1.0    0.134366    0.759054    0.979780 Biso 1.000000  H     
 N1     1.0    0.805920    0.270960    0.347004 Biso 1.000000  N     
 N2     1.0    0.649280    0.770960    0.308996 Biso 1.000000  N     
 N3     1.0    0.305920    0.270890    0.808788 Biso 1.000000  N     
 N4     1.0    0.149280    0.770890    0.847212 Biso 1.000000  N     
 N5     1.0    0.654439    0.227705    0.315264 Biso 1.000000  N     
 N6     1.0    0.800761    0.727705    0.340736 Biso 1.000000  N     
 N7     1.0    0.154438    0.227774    0.840944 Biso 1.000000  N     
 N8     1.0    0.300762    0.727774    0.815056 Biso 1.000000  N     
