_cell_length_a     8.8650
_cell_length_b    11.4457
_cell_length_c     7.6344
_cell_angle_alpha 90.0
_cell_angle_beta 90.0
_cell_angle_gamma 90.0
_space_group_IT_number                 1
 loop_
 _space_group_symop_operation_xyz 
 'x, y, z' 
 loop_ 
 _atom_site_label 
 _atom_site_occupancy 
 _atom_site_fract_x 
 _atom_site_fract_y
 _atom_site_fract_z
 _atom_site_adp_type
 _atom_site_U_iso_or_equiv
 _atom_site_type_symbol
 Mg1    1.0    0.241425    0.500773    0.328311 Biso 1.000000  Mg    
 Mg2    1.0    0.332575    0.000773    0.327689 Biso 1.000000  Mg    
 Mg3    1.0    0.741425    0.500773    0.827689 Biso 1.000000  Mg    
 Mg4    1.0    0.832575    0.000773    0.828311 Biso 1.000000  Mg    
 O1     1.0    0.215916    0.343988    0.184061 Biso 1.000000  O     
 O2     1.0    0.358084    0.843988    0.471939 Biso 1.000000  O     
 O3     1.0    0.715916    0.343988    0.971939 Biso 1.000000  O     
 O4     1.0    0.858084    0.843988    0.684061 Biso 1.000000  O     
 O5     1.0    0.285680    0.155340    0.192901 Biso 1.000000  O     
 O6     1.0    0.288320    0.655340    0.463099 Biso 1.000000  O     
 O7     1.0    0.785680    0.155340    0.963099 Biso 1.000000  O     
 O8     1.0    0.788320    0.655340    0.692901 Biso 1.000000  O     
 O9     1.0    0.341938    0.567498    0.101720 Biso 1.000000  O     
 O10    1.0    0.232062    0.067498    0.554280 Biso 1.000000  O     
 O11    1.0    0.841938    0.567498    0.054280 Biso 1.000000  O     
 O12    1.0    0.732062    0.067498    0.601720 Biso 1.000000  O     
 O13    1.0    0.537486    0.572961    0.914851 Biso 1.000000  O     
 O14    1.0    0.036514    0.072961    0.741149 Biso 1.000000  O     
 O15    1.0    0.037486    0.572961    0.241149 Biso 1.000000  O     
 O16    1.0    0.536514    0.072961    0.414851 Biso 1.000000  O     
 O17    1.0    0.448220    0.431819    0.409967 Biso 1.000000  O     
 O18    1.0    0.125779    0.931819    0.246033 Biso 1.000000  O     
 O19    1.0    0.948221    0.431819    0.746033 Biso 1.000000  O     
 O20    1.0    0.625779    0.931819    0.909967 Biso 1.000000  O     
 O21    1.0    0.641949    0.436036    0.598736 Biso 1.000000  O     
 O22    1.0    0.932051    0.936036    0.057264 Biso 1.000000  O     
 O23    1.0    0.141949    0.436036    0.557264 Biso 1.000000  O     
 O24    1.0    0.432051    0.936036    0.098736 Biso 1.000000  O     
 C1     1.0    0.245340    0.249574    0.265857 Biso 1.000000  C     
 C2     1.0    0.328660    0.749574    0.390143 Biso 1.000000  C     
 C3     1.0    0.745340    0.249574    0.890143 Biso 1.000000  C     
 C4     1.0    0.828660    0.749574    0.765857 Biso 1.000000  C     
 C5     1.0    0.462706    0.526095    0.038908 Biso 1.000000  C     
 C6     1.0    0.111294    0.026095    0.617092 Biso 1.000000  C     
 C7     1.0    0.962706    0.526095    0.117092 Biso 1.000000  C     
 C8     1.0    0.611294    0.026095    0.538908 Biso 1.000000  C     
 C9     1.0    0.505123    0.456745    0.556864 Biso 1.000000  C     
 C10    1.0    0.068877    0.956745    0.099136 Biso 1.000000  C     
 C11    1.0    0.005123    0.456745    0.599136 Biso 1.000000  C     
 C12    1.0    0.568877    0.956745    0.056864 Biso 1.000000  C     
 H1     1.0    0.234686    0.250797    0.409955 Biso 1.000000  H     
 H2     1.0    0.339314    0.750797    0.246045 Biso 1.000000  H     
 H3     1.0    0.734686    0.250797    0.746045 Biso 1.000000  H     
 H4     1.0    0.839314    0.750797    0.909955 Biso 1.000000  H     
 H5     1.0    0.506539    0.443865    0.094811 Biso 1.000000  H     
 H6     1.0    0.067461    0.943865    0.561189 Biso 1.000000  H     
 H7     1.0    0.006539    0.443865    0.061189 Biso 1.000000  H     
 H8     1.0    0.567461    0.943865    0.594811 Biso 1.000000  H     
 H9     1.0    0.433254    0.500135    0.655709 Biso 1.000000  H     
 H10    1.0    0.140746    0.000135    0.000291 Biso 1.000000  H     
 H11    1.0    0.933254    0.500135    0.500291 Biso 1.000000  H     
 H12    1.0    0.640746    0.000135    0.155709 Biso 1.000000  H     
 H13    1.0    0.698793    0.340204    0.419005 Biso 1.000000  H     
 H14    1.0    0.875207    0.840204    0.236995 Biso 1.000000  H     
 H15    1.0    0.198793    0.340204    0.736995 Biso 1.000000  H     
 H16    1.0    0.375207    0.840204    0.919005 Biso 1.000000  H     
 H17    1.0    0.703434    0.310517    0.198131 Biso 1.000000  H     
 H18    1.0    0.870566    0.810517    0.457869 Biso 1.000000  H     
 H19    1.0    0.203434    0.310517    0.957869 Biso 1.000000  H     
 H20    1.0    0.370566    0.810517    0.698131 Biso 1.000000  H     
 H21    1.0    0.631247    0.210451    0.344929 Biso 1.000000  H     
 H22    1.0    0.942753    0.710451    0.311071 Biso 1.000000  H     
 H23    1.0    0.131247    0.210451    0.811071 Biso 1.000000  H     
 H24    1.0    0.442753    0.710451    0.844929 Biso 1.000000  H     
 H25    1.0    0.858226    0.166523    0.437410 Biso 1.000000  H     
 H26    1.0    0.715774    0.666523    0.218590 Biso 1.000000  H     
 H27    1.0    0.358226    0.166523    0.718590 Biso 1.000000  H     
 H28    1.0    0.215774    0.666523    0.937410 Biso 1.000000  H     
 H29    1.0    0.878405    0.180826    0.222856 Biso 1.000000  H     
 H30    1.0    0.695595    0.680826    0.433144 Biso 1.000000  H     
 H31    1.0    0.378405    0.180826    0.933144 Biso 1.000000  H     
 H32    1.0    0.195595    0.680826    0.722856 Biso 1.000000  H     
 N1     1.0    0.865193    0.226912    0.337660 Biso 1.000000  N     
 N2     1.0    0.708807    0.726912    0.318340 Biso 1.000000  N     
 N3     1.0    0.365193    0.226912    0.818340 Biso 1.000000  N     
 N4     1.0    0.208807    0.726912    0.837660 Biso 1.000000  N     
 N5     1.0    0.713966    0.274771    0.324683 Biso 1.000000  N     
 N6     1.0    0.860034    0.774771    0.331317 Biso 1.000000  N     
 N7     1.0    0.213966    0.274771    0.831317 Biso 1.000000  N     
 N8     1.0    0.360034    0.774771    0.824683 Biso 1.000000  N     
