_cell_length_a     8.8650
_cell_length_b    11.4457
_cell_length_c     7.6344
_cell_angle_alpha 90.0
_cell_angle_beta 90.0
_cell_angle_gamma 90.0
_space_group_IT_number                 1
 loop_
 _space_group_symop_operation_xyz 
 'x, y, z' 
 loop_ 
 _atom_site_label 
 _atom_site_occupancy 
 _atom_site_fract_x 
 _atom_site_fract_y
 _atom_site_fract_z
 _atom_site_adp_type
 _atom_site_U_iso_or_equiv
 _atom_site_type_symbol
 Mg1    1.0    0.261545    0.499536    0.327813 Biso 1.000000  Mg    
 Mg2    1.0    0.206855   -0.000464    0.328187 Biso 1.000000  Mg    
 Mg3    1.0    0.761545    0.499536    0.828187 Biso 1.000000  Mg    
 Mg4    1.0    0.706855   -0.000464    0.827813 Biso 1.000000  Mg    
 O1     1.0    0.218927    0.344526    0.191133 Biso 1.000000  O     
 O2     1.0    0.249473    0.844526    0.464867 Biso 1.000000  O     
 O3     1.0    0.718927    0.344526    0.964867 Biso 1.000000  O     
 O4     1.0    0.749473    0.844526    0.691133 Biso 1.000000  O     
 O5     1.0    0.177069    0.155878    0.185829 Biso 1.000000  O     
 O6     1.0    0.291331    0.655878    0.470171 Biso 1.000000  O     
 O7     1.0    0.677069    0.155878    0.970171 Biso 1.000000  O     
 O8     1.0    0.791331    0.655878    0.685829 Biso 1.000000  O     
 O9     1.0    0.361228    0.564671    0.099333 Biso 1.000000  O     
 O10    1.0    0.107172    0.064671    0.556667 Biso 1.000000  O     
 O11    1.0    0.861228    0.564671    0.056667 Biso 1.000000  O     
 O12    1.0    0.607172    0.064671    0.599333 Biso 1.000000  O     
 O13    1.0    0.555320    0.569137    0.910944 Biso 1.000000  O     
 O14    1.0   -0.086920    0.069137    0.745056 Biso 1.000000  O     
 O15    1.0    0.055321    0.569137    0.245056 Biso 1.000000  O     
 O16    1.0    0.413080    0.069137    0.410944 Biso 1.000000  O     
 O17    1.0    0.466055    0.427995    0.413874 Biso 1.000000  O     
 O18    1.0    0.002345    0.927995    0.242126 Biso 1.000000  O     
 O19    1.0    0.966055    0.427995    0.742126 Biso 1.000000  O     
 O20    1.0    0.502345    0.927995    0.913874 Biso 1.000000  O     
 O21    1.0    0.661239    0.433209    0.601123 Biso 1.000000  O     
 O22    1.0    0.807161    0.933209    0.054877 Biso 1.000000  O     
 O23    1.0    0.161239    0.433209    0.554877 Biso 1.000000  O     
 O24    1.0    0.307161    0.933209    0.101123 Biso 1.000000  O     
 C1     1.0    0.192540    0.250256    0.265857 Biso 1.000000  C     
 C2     1.0    0.275860    0.750256    0.390143 Biso 1.000000  C     
 C3     1.0    0.692540    0.250256    0.890143 Biso 1.000000  C     
 C4     1.0    0.775860    0.750256    0.765857 Biso 1.000000  C     
 C5     1.0    0.494843    0.539823    0.053273 Biso 1.000000  C     
 C6     1.0   -0.026443    0.039823    0.602727 Biso 1.000000  C     
 C7     1.0    0.994843    0.539823    0.102727 Biso 1.000000  C     
 C8     1.0    0.473557    0.039823    0.553273 Biso 1.000000  C     
 C9     1.0    0.537260    0.470473    0.542499 Biso 1.000000  C     
 C10    1.0   -0.068860    0.970473    0.113501 Biso 1.000000  C     
 C11    1.0    0.037260    0.470473    0.613501 Biso 1.000000  C     
 C12    1.0    0.431140    0.970473    0.042499 Biso 1.000000  C     
 H1     1.0    0.181886    0.249522    0.409955 Biso 1.000000  H     
 H2     1.0    0.286514    0.749522    0.246045 Biso 1.000000  H     
 H3     1.0    0.681886    0.249522    0.746045 Biso 1.000000  H     
 H4     1.0    0.786514    0.749522    0.909955 Biso 1.000000  H     
 H5     1.0    0.561105    0.488665    0.143529 Biso 1.000000  H     
 H6     1.0   -0.092705    0.988665    0.512471 Biso 1.000000  H     
 H7     1.0    0.061105    0.488665    0.012471 Biso 1.000000  H     
 H8     1.0    0.407295    0.988665    0.643529 Biso 1.000000  H     
 H9     1.0    0.487820    0.544935    0.606991 Biso 1.000000  H     
 H10    1.0   -0.019420    0.044935    0.049009 Biso 1.000000  H     
 H11    1.0    0.987820    0.544935    0.549009 Biso 1.000000  H     
 H12    1.0    0.480580    0.044935    0.106991 Biso 1.000000  H     
 H13    1.0    0.644212    0.244335    0.172501 Biso 1.000000  H     
 H14    1.0    0.824188    0.744335    0.483499 Biso 1.000000  H     
 H15    1.0    0.144239    0.244888    0.983559 Biso 1.000000  H     
 H16    1.0    0.324161    0.744888    0.672441 Biso 1.000000  H     
 H17    1.0    0.651069    0.142453    0.338033 Biso 1.000000  H     
 H18    1.0    0.817331    0.642453    0.317967 Biso 1.000000  H     
 H19    1.0    0.151052    0.142438    0.818814 Biso 1.000000  H     
 H20    1.0    0.317348    0.642438    0.837186 Biso 1.000000  H     
 H21    1.0    0.578817    0.280305    0.374507 Biso 1.000000  H     
 H22    1.0    0.889583    0.780305    0.281493 Biso 1.000000  H     
 H23    1.0    0.078814    0.280169    0.781293 Biso 1.000000  H     
 H24    1.0    0.389586    0.780169    0.874707 Biso 1.000000  H     
 H25    1.0    0.805507    0.356495    0.370136 Biso 1.000000  H     
 H26    1.0    0.662893    0.856495    0.285864 Biso 1.000000  H     
 H27    1.0    0.305516    0.356353    0.785022 Biso 1.000000  H     
 H28    1.0    0.162884    0.856353    0.870978 Biso 1.000000  H     
 H29    1.0    0.827332    0.232251    0.478319 Biso 1.000000  H     
 H30    1.0    0.641068    0.732251    0.177681 Biso 1.000000  H     
 H31    1.0    0.327304    0.231738    0.677795 Biso 1.000000  H     
 H32    1.0    0.141096    0.731738    0.978205 Biso 1.000000  H     
 N1     1.0    0.812611    0.267200    0.355227 Biso 1.000000  N     
 N2     1.0    0.655789    0.767200    0.300773 Biso 1.000000  N     
 N3     1.0    0.312609    0.267110    0.800619 Biso 1.000000  N     
 N4     1.0    0.155791    0.767110    0.855381 Biso 1.000000  N     
 N5     1.0    0.660947    0.231804    0.307037 Biso 1.000000  N     
 N6     1.0    0.807453    0.731804    0.348963 Biso 1.000000  N     
 N7     1.0    0.160949    0.231894    0.849118 Biso 1.000000  N     
 N8     1.0    0.307451    0.731894    0.806882 Biso 1.000000  N     
