_cell_length_a     8.6279
_cell_length_b    11.4587
_cell_length_c     7.7380
_cell_angle_alpha 90.0
_cell_angle_beta 90.0
_cell_angle_gamma 90.0
_space_group_IT_number                 1
 loop_
 _space_group_symop_operation_xyz 
 'x, y, z' 
 loop_ 
 _atom_site_label 
 _atom_site_occupancy 
 _atom_site_fract_x 
 _atom_site_fract_y
 _atom_site_fract_z
 _atom_site_adp_type
 _atom_site_U_iso_or_equiv
 _atom_site_type_symbol
 Co1    1.0    0.278510    0.500113    0.319977 Biso 1.000000  Co    
 Co2    1.0    0.293490    0.000113    0.320023 Biso 1.000000  Co    
 Co3    1.0    0.778510    0.500113    0.820023 Biso 1.000000  Co    
 Co4    1.0    0.793490    0.000113    0.819977 Biso 1.000000  Co    
 O1     1.0    0.248076    0.345351    0.175984 Biso 1.000000  O     
 O2     1.0    0.323924    0.845351    0.464016 Biso 1.000000  O     
 O3     1.0    0.748076    0.345351    0.964016 Biso 1.000000  O     
 O4     1.0    0.823924    0.845351    0.675984 Biso 1.000000  O     
 O5     1.0    0.259129    0.154550    0.177154 Biso 1.000000  O     
 O6     1.0    0.312871    0.654550    0.462846 Biso 1.000000  O     
 O7     1.0    0.759129    0.154550    0.962846 Biso 1.000000  O     
 O8     1.0    0.812871    0.654550    0.677154 Biso 1.000000  O     
 O9     1.0    0.369964    0.570953    0.089498 Biso 1.000000  O     
 O10    1.0    0.202036    0.070953    0.550502 Biso 1.000000  O     
 O11    1.0    0.869964    0.570953    0.050502 Biso 1.000000  O     
 O12    1.0    0.702036    0.070953    0.589498 Biso 1.000000  O     
 O13    1.0    0.562693    0.571120    0.895855 Biso 1.000000  O     
 O14    1.0    0.009307    0.071120    0.744145 Biso 1.000000  O     
 O15    1.0    0.062693    0.571120    0.244145 Biso 1.000000  O     
 O16    1.0    0.509307    0.071120    0.395855 Biso 1.000000  O     
 O17    1.0    0.494707    0.430230    0.395077 Biso 1.000000  O     
 O18    1.0    0.077293    0.930231    0.244923 Biso 1.000000  O     
 O19    1.0    0.994707    0.430230    0.744923 Biso 1.000000  O     
 O20    1.0    0.577293    0.930231    0.895077 Biso 1.000000  O     
 O21    1.0    0.687176    0.429723    0.588877 Biso 1.000000  O     
 O22    1.0    0.884824    0.929723    0.051123 Biso 1.000000  O     
 O23    1.0    0.187176    0.429723    0.551123 Biso 1.000000  O     
 O24    1.0    0.384824    0.929723    0.088877 Biso 1.000000  O     
 C1     1.0    0.253175    0.250072    0.254721 Biso 1.000000  C     
 C2     1.0    0.318825    0.750072    0.385279 Biso 1.000000  C     
 C3     1.0    0.753175    0.250072    0.885279 Biso 1.000000  C     
 C4     1.0    0.818825    0.750072    0.754721 Biso 1.000000  C     
 C5     1.0    0.499151    0.534749    0.033026 Biso 1.000000  C     
 C6     1.0    0.072849    0.034749    0.606974 Biso 1.000000  C     
 C7     1.0    0.999151    0.534749    0.106974 Biso 1.000000  C     
 C8     1.0    0.572849    0.034749    0.533026 Biso 1.000000  C     
 C9     1.0    0.555457    0.463198    0.535379 Biso 1.000000  C     
 C10    1.0    0.016543    0.963198    0.104621 Biso 1.000000  C     
 C11    1.0    0.055457    0.463198    0.604621 Biso 1.000000  C     
 C12    1.0    0.516543    0.963198    0.035379 Biso 1.000000  C     
 H1     1.0    0.251922    0.250551    0.397087 Biso 1.000000  H     
 H2     1.0    0.320078    0.750551    0.242913 Biso 1.000000  H     
 H3     1.0    0.751922    0.250551    0.742913 Biso 1.000000  H     
 H4     1.0    0.820078    0.750551    0.897087 Biso 1.000000  H     
 H5     1.0    0.558931    0.468180    0.106637 Biso 1.000000  H     
 H6     1.0    0.013069    0.968180    0.533363 Biso 1.000000  H     
 H7     1.0    0.058931    0.468180    0.033363 Biso 1.000000  H     
 H8     1.0    0.513069    0.968180    0.606637 Biso 1.000000  H     
 H9     1.0    0.491484    0.524270    0.614859 Biso 1.000000  H     
 H10    1.0    0.080516    0.024270    0.025141 Biso 1.000000  H     
 H11    1.0    0.991483    0.524270    0.525141 Biso 1.000000  H     
 H12    1.0    0.580516    0.024270    0.114859 Biso 1.000000  H     
 H13    1.0    0.713150    0.343268    0.240470 Biso 1.000000  H     
 H14    1.0    0.858850    0.843268    0.399530 Biso 1.000000  H     
 H15    1.0    0.213170    0.343370    0.899293 Biso 1.000000  H     
 H16    1.0    0.358830    0.843370    0.740707 Biso 1.000000  H     
 H17    1.0    0.714561    0.199053    0.179371 Biso 1.000000  H     
 H18    1.0    0.857439    0.699053    0.460629 Biso 1.000000  H     
 H19    1.0    0.214581    0.199231    0.960784 Biso 1.000000  H     
 H20    1.0    0.357419    0.699231    0.679216 Biso 1.000000  H     
 H21    1.0    0.640011    0.240688    0.375983 Biso 1.000000  H     
 H22    1.0    0.931989    0.740688    0.264017 Biso 1.000000  H     
 H23    1.0    0.140000    0.240625    0.764074 Biso 1.000000  H     
 H24    1.0    0.432000    0.740625    0.875926 Biso 1.000000  H     
 H25    1.0    0.872946    0.275384    0.477530 Biso 1.000000  H     
 H26    1.0    0.699054    0.775384    0.162470 Biso 1.000000  H     
 H27    1.0    0.372921    0.275184    0.662384 Biso 1.000000  H     
 H28    1.0    0.199079    0.775184    0.977616 Biso 1.000000  H     
 H29    1.0    0.890334    0.152127    0.368019 Biso 1.000000  H     
 H30    1.0    0.681666    0.652127    0.271981 Biso 1.000000  H     
 H31    1.0    0.390318    0.152063    0.772226 Biso 1.000000  H     
 H32    1.0    0.181682    0.652063    0.867774 Biso 1.000000  H     
 N1     1.0    0.880422    0.241144    0.354762 Biso 1.000000  N     
 N2     1.0    0.691578    0.741144    0.285238 Biso 1.000000  N     
 N3     1.0    0.380415    0.241097    0.785243 Biso 1.000000  N     
 N4     1.0    0.191585    0.741097    0.854757 Biso 1.000000  N     
 N5     1.0    0.726414    0.257258    0.283567 Biso 1.000000  N     
 N6     1.0    0.845586    0.757258    0.356433 Biso 1.000000  N     
 N7     1.0    0.226421    0.257306    0.856427 Biso 1.000000  N     
 N8     1.0    0.345579    0.757306    0.783573 Biso 1.000000  N     
