_cell_length_a     8.6279
_cell_length_b    11.4587
_cell_length_c     7.7380
_cell_angle_alpha 90.0
_cell_angle_beta 90.0
_cell_angle_gamma 90.0
_space_group_IT_number                 1
 loop_
 _space_group_symop_operation_xyz 
 'x, y, z' 
 loop_ 
 _atom_site_label 
 _atom_site_occupancy 
 _atom_site_fract_x 
 _atom_site_fract_y
 _atom_site_fract_z
 _atom_site_adp_type
 _atom_site_U_iso_or_equiv
 _atom_site_type_symbol
 Co1    1.0    0.281490    0.499887    0.320023 Biso 1.000000  Co    
 Co2    1.0    0.266510   -0.000113    0.319977 Biso 1.000000  Co    
 Co3    1.0    0.781490    0.499887    0.819977 Biso 1.000000  Co    
 Co4    1.0    0.766510   -0.000113    0.820023 Biso 1.000000  Co    
 O1     1.0    0.247129    0.345450    0.177154 Biso 1.000000  O     
 O2     1.0    0.300871    0.845450    0.462846 Biso 1.000000  O     
 O3     1.0    0.747129    0.345450    0.962846 Biso 1.000000  O     
 O4     1.0    0.800871    0.845450    0.677154 Biso 1.000000  O     
 O5     1.0    0.236076    0.154649    0.175984 Biso 1.000000  O     
 O6     1.0    0.311924    0.654649    0.464016 Biso 1.000000  O     
 O7     1.0    0.736076    0.154649    0.964016 Biso 1.000000  O     
 O8     1.0    0.811924    0.654649    0.675984 Biso 1.000000  O     
 O9     1.0    0.372824    0.570277    0.088877 Biso 1.000000  O     
 O10    1.0    0.175176    0.070277    0.551123 Biso 1.000000  O     
 O11    1.0    0.872824    0.570277    0.051123 Biso 1.000000  O     
 O12    1.0    0.675176    0.070277    0.588877 Biso 1.000000  O     
 O13    1.0    0.565293    0.569770    0.895077 Biso 1.000000  O     
 O14    1.0   -0.017293    0.069769    0.744923 Biso 1.000000  O     
 O15    1.0    0.065293    0.569770    0.244923 Biso 1.000000  O     
 O16    1.0    0.482707    0.069769    0.395077 Biso 1.000000  O     
 O17    1.0    0.497307    0.428880    0.395855 Biso 1.000000  O     
 O18    1.0    0.050693    0.928880    0.244145 Biso 1.000000  O     
 O19    1.0    0.997307    0.428880    0.744145 Biso 1.000000  O     
 O20    1.0    0.550693    0.928880    0.895855 Biso 1.000000  O     
 O21    1.0    0.690036    0.429047    0.589498 Biso 1.000000  O     
 O22    1.0    0.857964    0.929047    0.050502 Biso 1.000000  O     
 O23    1.0    0.190036    0.429047    0.550502 Biso 1.000000  O     
 O24    1.0    0.357964    0.929047    0.089498 Biso 1.000000  O     
 C1     1.0    0.241175    0.249928    0.254721 Biso 1.000000  C     
 C2     1.0    0.306825    0.749928    0.385279 Biso 1.000000  C     
 C3     1.0    0.741175    0.249928    0.885279 Biso 1.000000  C     
 C4     1.0    0.806825    0.749928    0.754721 Biso 1.000000  C     
 C5     1.0    0.504543    0.536802    0.035379 Biso 1.000000  C     
 C6     1.0    0.043457    0.036802    0.604621 Biso 1.000000  C     
 C7     1.0    1.004543    0.536802    0.104621 Biso 1.000000  C     
 C8     1.0    0.543457    0.036802    0.535379 Biso 1.000000  C     
 C9     1.0    0.560849    0.465251    0.533026 Biso 1.000000  C     
 C10    1.0   -0.012849    0.965251    0.106974 Biso 1.000000  C     
 C11    1.0    0.060849    0.465251    0.606974 Biso 1.000000  C     
 C12    1.0    0.487151    0.965251    0.033026 Biso 1.000000  C     
 H1     1.0    0.239922    0.249449    0.397087 Biso 1.000000  H     
 H2     1.0    0.308078    0.749449    0.242913 Biso 1.000000  H     
 H3     1.0    0.739922    0.249449    0.742913 Biso 1.000000  H     
 H4     1.0    0.808078    0.749449    0.897087 Biso 1.000000  H     
 H5     1.0    0.568517    0.475730    0.114859 Biso 1.000000  H     
 H6     1.0   -0.020516    0.975730    0.525141 Biso 1.000000  H     
 H7     1.0    0.068516    0.475730    0.025141 Biso 1.000000  H     
 H8     1.0    0.479484    0.975730    0.614859 Biso 1.000000  H     
 H9     1.0    0.501069    0.531820    0.606637 Biso 1.000000  H     
 H10    1.0    0.046931    0.031820    0.033363 Biso 1.000000  H     
 H11    1.0    1.001069    0.531820    0.533363 Biso 1.000000  H     
 H12    1.0    0.546931    0.031820    0.106637 Biso 1.000000  H     
 H13    1.0    0.699530    0.301577    0.179228 Biso 1.000000  H     
 H14    1.0    0.848470    0.801577    0.460772 Biso 1.000000  H     
 H15    1.0    0.199572    0.301844    0.960593 Biso 1.000000  H     
 H16    1.0    0.348428    0.801844    0.679407 Biso 1.000000  H     
 H17    1.0    0.703127    0.157528    0.241071 Biso 1.000000  H     
 H18    1.0    0.844873    0.657528    0.398929 Biso 1.000000  H     
 H19    1.0    0.203134    0.157681    0.899337 Biso 1.000000  H     
 H20    1.0    0.344866    0.657681    0.740663 Biso 1.000000  H     
 H21    1.0    0.628253    0.262898    0.375423 Biso 1.000000  H     
 H22    1.0    0.919747    0.762898    0.264577 Biso 1.000000  H     
 H23    1.0    0.128241    0.262806    0.764579 Biso 1.000000  H     
 H24    1.0    0.419759    0.762806    0.875421 Biso 1.000000  H     
 H25    1.0    0.860792    0.330353    0.432016 Biso 1.000000  H     
 H26    1.0    0.687208    0.830353    0.207984 Biso 1.000000  H     
 H27    1.0    0.360775    0.330137    0.707638 Biso 1.000000  H     
 H28    1.0    0.187225    0.830137    0.932362 Biso 1.000000  H     
 H29    1.0    0.879950    0.186769    0.436215 Biso 1.000000  H     
 H30    1.0    0.668050    0.686769    0.203785 Biso 1.000000  H     
 H31    1.0    0.379912    0.186544    0.704019 Biso 1.000000  H     
 H32    1.0    0.168088    0.686544    0.935981 Biso 1.000000  H     
 N1     1.0    0.868604    0.257311    0.354963 Biso 1.000000  N     
 N2     1.0    0.679396    0.757311    0.285037 Biso 1.000000  N     
 N3     1.0    0.368596    0.257238    0.784986 Biso 1.000000  N     
 N4     1.0    0.179404    0.757238    0.855014 Biso 1.000000  N     
 N5     1.0    0.714231    0.244323    0.283350 Biso 1.000000  N     
 N6     1.0    0.833769    0.744323    0.356650 Biso 1.000000  N     
 N7     1.0    0.214239    0.244396    0.856700 Biso 1.000000  N     
 N8     1.0    0.333761    0.744396    0.783300 Biso 1.000000  N     
