_cell_length_a     8.6279
_cell_length_b    11.4587
_cell_length_c     7.7380
_cell_angle_alpha 90.0
_cell_angle_beta 90.0
_cell_angle_gamma 90.0
_space_group_IT_number                 1
 loop_
 _space_group_symop_operation_xyz 
 'x, y, z' 
 loop_ 
 _atom_site_label 
 _atom_site_occupancy 
 _atom_site_fract_x 
 _atom_site_fract_y
 _atom_site_fract_z
 _atom_site_adp_type
 _atom_site_U_iso_or_equiv
 _atom_site_type_symbol
 Co1    1.0    0.284469    0.499660    0.320069 Biso 1.000000  Co    
 Co2    1.0    0.239531   -0.000340    0.319931 Biso 1.000000  Co    
 Co3    1.0    0.784469    0.499660    0.819931 Biso 1.000000  Co    
 Co4    1.0    0.739531   -0.000340    0.820069 Biso 1.000000  Co    
 O1     1.0    0.246182    0.345548    0.178325 Biso 1.000000  O     
 O2     1.0    0.277818    0.845548    0.461675 Biso 1.000000  O     
 O3     1.0    0.746182    0.345548    0.961675 Biso 1.000000  O     
 O4     1.0    0.777818    0.845548    0.678325 Biso 1.000000  O     
 O5     1.0    0.213023    0.154747    0.174813 Biso 1.000000  O     
 O6     1.0    0.310977    0.654747    0.465187 Biso 1.000000  O     
 O7     1.0    0.713023    0.154747    0.965187 Biso 1.000000  O     
 O8     1.0    0.810977    0.654747    0.674813 Biso 1.000000  O     
 O9     1.0    0.375683    0.569600    0.088257 Biso 1.000000  O     
 O10    1.0    0.148317    0.069600    0.551743 Biso 1.000000  O     
 O11    1.0    0.875683    0.569600    0.051743 Biso 1.000000  O     
 O12    1.0    0.648317    0.069600    0.588257 Biso 1.000000  O     
 O13    1.0    0.567894    0.568419    0.894300 Biso 1.000000  O     
 O14    1.0   -0.043894    0.068419    0.745700 Biso 1.000000  O     
 O15    1.0    0.067894    0.568419    0.245700 Biso 1.000000  O     
 O16    1.0    0.456106    0.068419    0.394300 Biso 1.000000  O     
 O17    1.0    0.499908    0.427529    0.396632 Biso 1.000000  O     
 O18    1.0    0.024092    0.927530    0.243368 Biso 1.000000  O     
 O19    1.0    0.999908    0.427529    0.743368 Biso 1.000000  O     
 O20    1.0    0.524092    0.927530    0.896632 Biso 1.000000  O     
 O21    1.0    0.692895    0.428370    0.590118 Biso 1.000000  O     
 O22    1.0    0.831105    0.928370    0.049882 Biso 1.000000  O     
 O23    1.0    0.192895    0.428370    0.549882 Biso 1.000000  O     
 O24    1.0    0.331105    0.928370    0.090118 Biso 1.000000  O     
 C1     1.0    0.229175    0.249785    0.254721 Biso 1.000000  C     
 C2     1.0    0.294825    0.749785    0.385279 Biso 1.000000  C     
 C3     1.0    0.729175    0.249785    0.885279 Biso 1.000000  C     
 C4     1.0    0.794825    0.749785    0.754721 Biso 1.000000  C     
 C5     1.0    0.509936    0.538855    0.037731 Biso 1.000000  C     
 C6     1.0    0.014064    0.038855    0.602269 Biso 1.000000  C     
 C7     1.0    1.009936    0.538855    0.102269 Biso 1.000000  C     
 C8     1.0    0.514064    0.038855    0.537731 Biso 1.000000  C     
 C9     1.0    0.566242    0.467304    0.530674 Biso 1.000000  C     
 C10    1.0   -0.042242    0.967304    0.109326 Biso 1.000000  C     
 C11    1.0    0.066242    0.467304    0.609326 Biso 1.000000  C     
 C12    1.0    0.457758    0.967304    0.030674 Biso 1.000000  C     
 H1     1.0    0.227922    0.248348    0.397087 Biso 1.000000  H     
 H2     1.0    0.296078    0.748348    0.242913 Biso 1.000000  H     
 H3     1.0    0.727922    0.248348    0.742913 Biso 1.000000  H     
 H4     1.0    0.796078    0.748348    0.897087 Biso 1.000000  H     
 H5     1.0    0.578102    0.483281    0.123080 Biso 1.000000  H     
 H6     1.0   -0.054102    0.983281    0.516920 Biso 1.000000  H     
 H7     1.0    0.078102    0.483281    0.016920 Biso 1.000000  H     
 H8     1.0    0.445898    0.983281    0.623080 Biso 1.000000  H     
 H9     1.0    0.510655    0.539371    0.598416 Biso 1.000000  H     
 H10    1.0    0.013345    0.039371    0.041584 Biso 1.000000  H     
 H11    1.0    1.010654    0.539371    0.541584 Biso 1.000000  H     
 H12    1.0    0.513345    0.039371    0.098416 Biso 1.000000  H     
 H13    1.0    0.686475    0.244246    0.161546 Biso 1.000000  H     
 H14    1.0    0.837525    0.744246    0.478454 Biso 1.000000  H     
 H15    1.0    0.186525    0.244649    0.978536 Biso 1.000000  H     
 H16    1.0    0.337475    0.744649    0.661464 Biso 1.000000  H     
 H17    1.0    0.693051    0.144526    0.327325 Biso 1.000000  H     
 H18    1.0    0.830949    0.644526    0.312675 Biso 1.000000  H     
 H19    1.0    0.193024    0.144518    0.813297 Biso 1.000000  H     
 H20    1.0    0.330976    0.644518    0.826703 Biso 1.000000  H     
 H21    1.0    0.616032    0.281264    0.358815 Biso 1.000000  H     
 H22    1.0    0.907968    0.781264    0.281185 Biso 1.000000  H     
 H23    1.0    0.116025    0.281187    0.781096 Biso 1.000000  H     
 H24    1.0    0.407975    0.781187    0.858904 Biso 1.000000  H     
 H25    1.0    0.847159    0.360995    0.351441 Biso 1.000000  H     
 H26    1.0    0.676841    0.860995    0.288559 Biso 1.000000  H     
 H27    1.0    0.347172    0.360905    0.787941 Biso 1.000000  H     
 H28    1.0    0.176828    0.860905    0.852059 Biso 1.000000  H     
 H29    1.0    0.869276    0.241117    0.467895 Biso 1.000000  H     
 H30    1.0    0.654724    0.741117    0.172105 Biso 1.000000  H     
 H31    1.0    0.369224    0.240737    0.672131 Biso 1.000000  H     
 H32    1.0    0.154776    0.740737    0.967869 Biso 1.000000  H     
 N1     1.0    0.856465    0.271550    0.343640 Biso 1.000000  N     
 N2     1.0    0.667535    0.771550    0.296360 Biso 1.000000  N     
 N3     1.0    0.356461    0.271480    0.796224 Biso 1.000000  N     
 N4     1.0    0.167539    0.771480    0.843776 Biso 1.000000  N     
 N5     1.0    0.702370    0.233312    0.294670 Biso 1.000000  N     
 N6     1.0    0.821630    0.733312    0.345330 Biso 1.000000  N     
 N7     1.0    0.202373    0.233382    0.845465 Biso 1.000000  N     
 N8     1.0    0.321627    0.733382    0.794535 Biso 1.000000  N     
