_cell_length_a     8.6279
_cell_length_b    11.4587
_cell_length_c     7.7380
_cell_angle_alpha 90.0
_cell_angle_beta 90.0
_cell_angle_gamma 90.0
_space_group_IT_number                 1
 loop_
 _space_group_symop_operation_xyz 
 'x, y, z' 
 loop_ 
 _atom_site_label 
 _atom_site_occupancy 
 _atom_site_fract_x 
 _atom_site_fract_y
 _atom_site_fract_z
 _atom_site_adp_type
 _atom_site_U_iso_or_equiv
 _atom_site_type_symbol
 Co1    1.0    0.282980    0.499774    0.320046 Biso 1.000000  Co    
 Co2    1.0    0.253020   -0.000226    0.319954 Biso 1.000000  Co    
 Co3    1.0    0.782980    0.499774    0.819954 Biso 1.000000  Co    
 Co4    1.0    0.753020   -0.000226    0.820046 Biso 1.000000  Co    
 O1     1.0    0.246655    0.345499    0.177740 Biso 1.000000  O     
 O2     1.0    0.289345    0.845499    0.462260 Biso 1.000000  O     
 O3     1.0    0.746656    0.345499    0.962260 Biso 1.000000  O     
 O4     1.0    0.789345    0.845499    0.677740 Biso 1.000000  O     
 O5     1.0    0.224549    0.154698    0.175398 Biso 1.000000  O     
 O6     1.0    0.311450    0.654698    0.464602 Biso 1.000000  O     
 O7     1.0    0.724549    0.154698    0.964602 Biso 1.000000  O     
 O8     1.0    0.811450    0.654698    0.675398 Biso 1.000000  O     
 O9     1.0    0.374253    0.569938    0.088567 Biso 1.000000  O     
 O10    1.0    0.161747    0.069938    0.551433 Biso 1.000000  O     
 O11    1.0    0.874253    0.569938    0.051433 Biso 1.000000  O     
 O12    1.0    0.661747    0.069938    0.588567 Biso 1.000000  O     
 O13    1.0    0.566594    0.569095    0.894688 Biso 1.000000  O     
 O14    1.0   -0.030594    0.069094    0.745312 Biso 1.000000  O     
 O15    1.0    0.066594    0.569095    0.245312 Biso 1.000000  O     
 O16    1.0    0.469406    0.069094    0.394688 Biso 1.000000  O     
 O17    1.0    0.498608    0.428205    0.396244 Biso 1.000000  O     
 O18    1.0    0.037392    0.928205    0.243756 Biso 1.000000  O     
 O19    1.0    0.998608    0.428205    0.743756 Biso 1.000000  O     
 O20    1.0    0.537392    0.928205    0.896244 Biso 1.000000  O     
 O21    1.0    0.691465    0.428708    0.589808 Biso 1.000000  O     
 O22    1.0    0.844535    0.928708    0.050192 Biso 1.000000  O     
 O23    1.0    0.191465    0.428708    0.550192 Biso 1.000000  O     
 O24    1.0    0.344535    0.928708    0.089808 Biso 1.000000  O     
 C1     1.0    0.235175    0.249857    0.254721 Biso 1.000000  C     
 C2     1.0    0.300825    0.749857    0.385279 Biso 1.000000  C     
 C3     1.0    0.735175    0.249857    0.885279 Biso 1.000000  C     
 C4     1.0    0.800825    0.749857    0.754721 Biso 1.000000  C     
 C5     1.0    0.507239    0.537829    0.036555 Biso 1.000000  C     
 C6     1.0    0.028761    0.037829    0.603445 Biso 1.000000  C     
 C7     1.0    1.007239    0.537829    0.103445 Biso 1.000000  C     
 C8     1.0    0.528761    0.037829    0.536555 Biso 1.000000  C     
 C9     1.0    0.563545    0.466278    0.531850 Biso 1.000000  C     
 C10    1.0   -0.027545    0.966278    0.108150 Biso 1.000000  C     
 C11    1.0    0.063545    0.466278    0.608150 Biso 1.000000  C     
 C12    1.0    0.472455    0.966278    0.031850 Biso 1.000000  C     
 H1     1.0    0.233922    0.248898    0.397087 Biso 1.000000  H     
 H2     1.0    0.302078    0.748898    0.242913 Biso 1.000000  H     
 H3     1.0    0.733922    0.248898    0.742913 Biso 1.000000  H     
 H4     1.0    0.802078    0.748898    0.897087 Biso 1.000000  H     
 H5     1.0    0.573310    0.479506    0.118969 Biso 1.000000  H     
 H6     1.0   -0.037309    0.979506    0.521031 Biso 1.000000  H     
 H7     1.0    0.073309    0.479506    0.021031 Biso 1.000000  H     
 H8     1.0    0.462691    0.979506    0.618969 Biso 1.000000  H     
 H9     1.0    0.505862    0.535596    0.602527 Biso 1.000000  H     
 H10    1.0    0.030138    0.035596    0.037473 Biso 1.000000  H     
 H11    1.0    1.005862    0.535596    0.537473 Biso 1.000000  H     
 H12    1.0    0.530138    0.035596    0.102527 Biso 1.000000  H     
 H13    1.0    0.692866    0.273789    0.164235 Biso 1.000000  H     
 H14    1.0    0.843134    0.773789    0.475765 Biso 1.000000  H     
 H15    1.0    0.192915    0.274135    0.975693 Biso 1.000000  H     
 H16    1.0    0.343085    0.774135    0.664307 Biso 1.000000  H     
 H17    1.0    0.697936    0.146947    0.282681 Biso 1.000000  H     
 H18    1.0    0.838064    0.646947    0.357319 Biso 1.000000  H     
 H19    1.0    0.197928    0.147035    0.857848 Biso 1.000000  H     
 H20    1.0    0.338072    0.647035    0.782152 Biso 1.000000  H     
 H21    1.0    0.622211    0.272934    0.368884 Biso 1.000000  H     
 H22    1.0    0.913789    0.772934    0.271116 Biso 1.000000  H     
 H23    1.0    0.122200    0.272843    0.771074 Biso 1.000000  H     
 H24    1.0    0.413800    0.772843    0.868926 Biso 1.000000  H     
 H25    1.0    0.854160    0.349490    0.394752 Biso 1.000000  H     
 H26    1.0    0.681840    0.849490    0.245248 Biso 1.000000  H     
 H27    1.0    0.354156    0.349319    0.744758 Biso 1.000000  H     
 H28    1.0    0.181844    0.849319    0.895242 Biso 1.000000  H     
 H29    1.0    0.874715    0.212399    0.457557 Biso 1.000000  H     
 H30    1.0    0.661285    0.712399    0.182443 Biso 1.000000  H     
 H31    1.0    0.374667    0.212090    0.682597 Biso 1.000000  H     
 H32    1.0    0.161333    0.712090    0.957403 Biso 1.000000  H     
 N1     1.0    0.862583    0.264942    0.350612 Biso 1.000000  N     
 N2     1.0    0.673417    0.764942    0.289388 Biso 1.000000  N     
 N3     1.0    0.362577    0.264865    0.789296 Biso 1.000000  N     
 N4     1.0    0.173423    0.764865    0.850704 Biso 1.000000  N     
 N5     1.0    0.708252    0.238306    0.287698 Biso 1.000000  N     
 N6     1.0    0.827748    0.738306    0.352302 Biso 1.000000  N     
 N7     1.0    0.208258    0.238383    0.852393 Biso 1.000000  N     
 N8     1.0    0.327742    0.738383    0.787607 Biso 1.000000  N     
