_cell_length_a     8.6279
_cell_length_b    11.4587
_cell_length_c     7.7380
_cell_angle_alpha 90.0
_cell_angle_beta 90.0
_cell_angle_gamma 90.0
_space_group_IT_number                 1
 loop_
 _space_group_symop_operation_xyz 
 'x, y, z' 
 loop_ 
 _atom_site_label 
 _atom_site_occupancy 
 _atom_site_fract_x 
 _atom_site_fract_y
 _atom_site_fract_z
 _atom_site_adp_type
 _atom_site_U_iso_or_equiv
 _atom_site_type_symbol
 Co1    1.0    0.272551    0.500566    0.319885 Biso 1.000000  Co    
 Co2    1.0    0.347449    0.000566    0.320115 Biso 1.000000  Co    
 Co3    1.0    0.772551    0.500566    0.820115 Biso 1.000000  Co    
 Co4    1.0    0.847449    0.000566    0.819885 Biso 1.000000  Co    
 O1     1.0    0.249970    0.345154    0.173642 Biso 1.000000  O     
 O2     1.0    0.370030    0.845154    0.466358 Biso 1.000000  O     
 O3     1.0    0.749970    0.345154    0.966358 Biso 1.000000  O     
 O4     1.0    0.870030    0.845154    0.673642 Biso 1.000000  O     
 O5     1.0    0.305235    0.154353    0.179496 Biso 1.000000  O     
 O6     1.0    0.314765    0.654353    0.460504 Biso 1.000000  O     
 O7     1.0    0.805235    0.154353    0.960504 Biso 1.000000  O     
 O8     1.0    0.814765    0.654353    0.679496 Biso 1.000000  O     
 O9     1.0    0.364246    0.572307    0.090738 Biso 1.000000  O     
 O10    1.0    0.255754    0.072307    0.549262 Biso 1.000000  O     
 O11    1.0    0.864246    0.572307    0.049262 Biso 1.000000  O     
 O12    1.0    0.755754    0.072307    0.590738 Biso 1.000000  O     
 O13    1.0    0.557491    0.573821    0.897410 Biso 1.000000  O     
 O14    1.0    0.062509    0.073821    0.742590 Biso 1.000000  O     
 O15    1.0    0.057491    0.573821    0.242590 Biso 1.000000  O     
 O16    1.0    0.562509    0.073821    0.397410 Biso 1.000000  O     
 O17    1.0    0.489505    0.432931    0.393522 Biso 1.000000  O     
 O18    1.0    0.130495    0.932932    0.246478 Biso 1.000000  O     
 O19    1.0    0.989505    0.432931    0.746478 Biso 1.000000  O     
 O20    1.0    0.630495    0.932932    0.893522 Biso 1.000000  O     
 O21    1.0    0.681458    0.431077    0.587637 Biso 1.000000  O     
 O22    1.0    0.938542    0.931077    0.052363 Biso 1.000000  O     
 O23    1.0    0.181458    0.431077    0.552363 Biso 1.000000  O     
 O24    1.0    0.438542    0.931077    0.087637 Biso 1.000000  O     
 C1     1.0    0.277175    0.250358    0.254721 Biso 1.000000  C     
 C2     1.0    0.342825    0.750358    0.385279 Biso 1.000000  C     
 C3     1.0    0.777175    0.250358    0.885279 Biso 1.000000  C     
 C4     1.0    0.842825    0.750358    0.754721 Biso 1.000000  C     
 C5     1.0    0.488366    0.530643    0.028321 Biso 1.000000  C     
 C6     1.0    0.131634    0.030643    0.611679 Biso 1.000000  C     
 C7     1.0    0.988366    0.530643    0.111679 Biso 1.000000  C     
 C8     1.0    0.631634    0.030643    0.528321 Biso 1.000000  C     
 C9     1.0    0.544672    0.459092    0.540084 Biso 1.000000  C     
 C10    1.0    0.075328    0.959092    0.099916 Biso 1.000000  C     
 C11    1.0    0.044672    0.459092    0.599916 Biso 1.000000  C     
 C12    1.0    0.575328    0.959092    0.040084 Biso 1.000000  C     
 H1     1.0    0.275922    0.252754    0.397087 Biso 1.000000  H     
 H2     1.0    0.344078    0.752754    0.242913 Biso 1.000000  H     
 H3     1.0    0.775922    0.252754    0.742913 Biso 1.000000  H     
 H4     1.0    0.844078    0.752754    0.897087 Biso 1.000000  H     
 H5     1.0    0.539760    0.453078    0.090195 Biso 1.000000  H     
 H6     1.0    0.080241    0.953078    0.549805 Biso 1.000000  H     
 H7     1.0    0.039759    0.453078    0.049805 Biso 1.000000  H     
 H8     1.0    0.580241    0.953078    0.590195 Biso 1.000000  H     
 H9     1.0    0.472312    0.509168    0.631301 Biso 1.000000  H     
 H10    1.0    0.147688    0.009168    0.008699 Biso 1.000000  H     
 H11    1.0    0.972312    0.509168    0.508699 Biso 1.000000  H     
 H12    1.0    0.647688    0.009168    0.131301 Biso 1.000000  H     
 H13    1.0    0.738462    0.335586    0.410147 Biso 1.000000  H     
 H14    1.0    0.881538    0.835586    0.229853 Biso 1.000000  H     
 H15    1.0    0.238462    0.335586    0.729853 Biso 1.000000  H     
 H16    1.0    0.381538    0.835586    0.910147 Biso 1.000000  H     
 H17    1.0    0.740183    0.310162    0.191237 Biso 1.000000  H     
 H18    1.0    0.879817    0.810162    0.448763 Biso 1.000000  H     
 H19    1.0    0.240183    0.310162    0.948763 Biso 1.000000  H     
 H20    1.0    0.379817    0.810162    0.691237 Biso 1.000000  H     
 H21    1.0    0.663279    0.209397    0.331768 Biso 1.000000  H     
 H22    1.0    0.956721    0.709397    0.308232 Biso 1.000000  H     
 H23    1.0    0.163279    0.209397    0.808232 Biso 1.000000  H     
 H24    1.0    0.456721    0.709397    0.831768 Biso 1.000000  H     
 H25    1.0    0.895013    0.160256    0.423145 Biso 1.000000  H     
 H26    1.0    0.724987    0.660256    0.216855 Biso 1.000000  H     
 H27    1.0    0.395013    0.160256    0.716855 Biso 1.000000  H     
 H28    1.0    0.224987    0.660256    0.923145 Biso 1.000000  H     
 H29    1.0    0.913391    0.173211    0.211261 Biso 1.000000  H     
 H30    1.0    0.706609    0.673211    0.428739 Biso 1.000000  H     
 H31    1.0    0.413391    0.173211    0.928739 Biso 1.000000  H     
 H32    1.0    0.206609    0.673211    0.711261 Biso 1.000000  H     
 N1     1.0    0.903936    0.220005    0.324227 Biso 1.000000  N     
 N2     1.0    0.716064    0.720005    0.315773 Biso 1.000000  N     
 N3     1.0    0.403936    0.220005    0.815773 Biso 1.000000  N     
 N4     1.0    0.216064    0.720005    0.824227 Biso 1.000000  N     
 N5     1.0    0.750900    0.271909    0.314155 Biso 1.000000  N     
 N6     1.0    0.869100    0.771909    0.325845 Biso 1.000000  N     
 N7     1.0    0.250900    0.271909    0.825845 Biso 1.000000  N     
 N8     1.0    0.369100    0.771909    0.814155 Biso 1.000000  N     
