_cell_length_a     8.6279
_cell_length_b    11.4587
_cell_length_c     7.7380
_cell_angle_alpha 90.0
_cell_angle_beta 90.0
_cell_angle_gamma 90.0
_space_group_IT_number                 1
 loop_
 _space_group_symop_operation_xyz 
 'x, y, z' 
 loop_ 
 _atom_site_label 
 _atom_site_occupancy 
 _atom_site_fract_x 
 _atom_site_fract_y
 _atom_site_fract_z
 _atom_site_adp_type
 _atom_site_U_iso_or_equiv
 _atom_site_type_symbol
 Co1    1.0    0.287449    0.499434    0.320115 Biso 1.000000  Co    
 Co2    1.0    0.212551   -0.000566    0.319885 Biso 1.000000  Co    
 Co3    1.0    0.787449    0.499434    0.819885 Biso 1.000000  Co    
 Co4    1.0    0.712551   -0.000566    0.820115 Biso 1.000000  Co    
 O1     1.0    0.245235    0.345647    0.179496 Biso 1.000000  O     
 O2     1.0    0.254765    0.845647    0.460504 Biso 1.000000  O     
 O3     1.0    0.745235    0.345647    0.960504 Biso 1.000000  O     
 O4     1.0    0.754765    0.845647    0.679496 Biso 1.000000  O     
 O5     1.0    0.189970    0.154846    0.173642 Biso 1.000000  O     
 O6     1.0    0.310030    0.654846    0.466358 Biso 1.000000  O     
 O7     1.0    0.689970    0.154846    0.966358 Biso 1.000000  O     
 O8     1.0    0.810030    0.654846    0.673642 Biso 1.000000  O     
 O9     1.0    0.378542    0.568923    0.087637 Biso 1.000000  O     
 O10    1.0    0.121458    0.068923    0.552363 Biso 1.000000  O     
 O11    1.0    0.878542    0.568923    0.052363 Biso 1.000000  O     
 O12    1.0    0.621458    0.068923    0.587637 Biso 1.000000  O     
 O13    1.0    0.570495    0.567069    0.893522 Biso 1.000000  O     
 O14    1.0   -0.070495    0.067068    0.746478 Biso 1.000000  O     
 O15    1.0    0.070495    0.567069    0.246478 Biso 1.000000  O     
 O16    1.0    0.429505    0.067068    0.393522 Biso 1.000000  O     
 O17    1.0    0.502509    0.426179    0.397410 Biso 1.000000  O     
 O18    1.0   -0.002509    0.926179    0.242590 Biso 1.000000  O     
 O19    1.0    1.002509    0.426179    0.742590 Biso 1.000000  O     
 O20    1.0    0.497491    0.926179    0.897410 Biso 1.000000  O     
 O21    1.0    0.695754    0.427693    0.590738 Biso 1.000000  O     
 O22    1.0    0.804246    0.927693    0.049262 Biso 1.000000  O     
 O23    1.0    0.195754    0.427693    0.549262 Biso 1.000000  O     
 O24    1.0    0.304246    0.927693    0.090738 Biso 1.000000  O     
 C1     1.0    0.217175    0.249642    0.254721 Biso 1.000000  C     
 C2     1.0    0.282825    0.749642    0.385279 Biso 1.000000  C     
 C3     1.0    0.717175    0.249642    0.885279 Biso 1.000000  C     
 C4     1.0    0.782825    0.749642    0.754721 Biso 1.000000  C     
 C5     1.0    0.515328    0.540908    0.040084 Biso 1.000000  C     
 C6     1.0   -0.015328    0.040908    0.599916 Biso 1.000000  C     
 C7     1.0    1.015328    0.540908    0.099916 Biso 1.000000  C     
 C8     1.0    0.484672    0.040908    0.540084 Biso 1.000000  C     
 C9     1.0    0.571634    0.469357    0.528321 Biso 1.000000  C     
 C10    1.0   -0.071634    0.969357    0.111679 Biso 1.000000  C     
 C11    1.0    0.071634    0.469357    0.611679 Biso 1.000000  C     
 C12    1.0    0.428366    0.969357    0.028321 Biso 1.000000  C     
 H1     1.0    0.215922    0.247246    0.397087 Biso 1.000000  H     
 H2     1.0    0.284078    0.747246    0.242913 Biso 1.000000  H     
 H3     1.0    0.715922    0.247246    0.742913 Biso 1.000000  H     
 H4     1.0    0.784078    0.747246    0.897087 Biso 1.000000  H     
 H5     1.0    0.587688    0.490832    0.131301 Biso 1.000000  H     
 H6     1.0   -0.087688    0.990832    0.508699 Biso 1.000000  H     
 H7     1.0    0.087688    0.490832    0.008699 Biso 1.000000  H     
 H8     1.0    0.412312    0.990832    0.631301 Biso 1.000000  H     
 H9     1.0    0.520241    0.546922    0.590195 Biso 1.000000  H     
 H10    1.0   -0.020241    0.046922    0.049805 Biso 1.000000  H     
 H11    1.0    1.020240    0.546922    0.549805 Biso 1.000000  H     
 H12    1.0    0.479759    0.046922    0.090195 Biso 1.000000  H     
 H13    1.0    0.674923    0.189326    0.193045 Biso 1.000000  H     
 H14    1.0    0.825077    0.689326    0.446955 Biso 1.000000  H     
 H15    1.0    0.174954    0.189734    0.947441 Biso 1.000000  H     
 H16    1.0    0.325046    0.689734    0.692559 Biso 1.000000  H     
 H17    1.0    0.683794    0.164510    0.411893 Biso 1.000000  H     
 H18    1.0    0.816206    0.664510    0.228107 Biso 1.000000  H     
 H19    1.0    0.183727    0.164239    0.728759 Biso 1.000000  H     
 H20    1.0    0.316273    0.664239    0.911241 Biso 1.000000  H     
 H21    1.0    0.603274    0.290608    0.331653 Biso 1.000000  H     
 H22    1.0    0.896726    0.790608    0.308347 Biso 1.000000  H     
 H23    1.0    0.103281    0.290599    0.808182 Biso 1.000000  H     
 H24    1.0    0.396719    0.790599    0.831818 Biso 1.000000  H     
 H25    1.0    0.832346    0.358430    0.260355 Biso 1.000000  H     
 H26    1.0    0.667654    0.858430    0.379645 Biso 1.000000  H     
 H27    1.0    0.332404    0.358599    0.878902 Biso 1.000000  H     
 H28    1.0    0.167596    0.858599    0.761098 Biso 1.000000  H     
 H29    1.0    0.857337    0.299032    0.453150 Biso 1.000000  H     
 H30    1.0    0.642663    0.799032    0.186850 Biso 1.000000  H     
 H31    1.0    0.357296    0.298600    0.686500 Biso 1.000000  H     
 H32    1.0    0.142704    0.798600    0.953500 Biso 1.000000  H     
 N1     1.0    0.843931    0.280015    0.324085 Biso 1.000000  N     
 N2     1.0    0.656069    0.780015    0.315915 Biso 1.000000  N     
 N3     1.0    0.343938    0.279985    0.815700 Biso 1.000000  N     
 N4     1.0    0.156062    0.779985    0.824300 Biso 1.000000  N     
 N5     1.0    0.690904    0.228078    0.314238 Biso 1.000000  N     
 N6     1.0    0.809096    0.728078    0.325762 Biso 1.000000  N     
 N7     1.0    0.190897    0.228107    0.825977 Biso 1.000000  N     
 N8     1.0    0.309103    0.728107    0.814023 Biso 1.000000  N     
