_cell_length_a     8.6279
_cell_length_b    11.4587
_cell_length_c     7.7380
_cell_angle_alpha 90.0
_cell_angle_beta 90.0
_cell_angle_gamma 90.0
_space_group_IT_number                 1
 loop_
 _space_group_symop_operation_xyz 
 'x, y, z' 
 loop_ 
 _atom_site_label 
 _atom_site_occupancy 
 _atom_site_fract_x 
 _atom_site_fract_y
 _atom_site_fract_z
 _atom_site_adp_type
 _atom_site_U_iso_or_equiv
 _atom_site_type_symbol
 Co1    1.0    0.274041    0.500453    0.319908 Biso 1.000000  Co    
 Co2    1.0    0.333959    0.000453    0.320092 Biso 1.000000  Co    
 Co3    1.0    0.774041    0.500453    0.820092 Biso 1.000000  Co    
 Co4    1.0    0.833959    0.000453    0.819908 Biso 1.000000  Co    
 O1     1.0    0.249497    0.345203    0.174227 Biso 1.000000  O     
 O2     1.0    0.358504    0.845203    0.465773 Biso 1.000000  O     
 O3     1.0    0.749497    0.345203    0.965773 Biso 1.000000  O     
 O4     1.0    0.858503    0.845203    0.674227 Biso 1.000000  O     
 O5     1.0    0.293708    0.154402    0.178911 Biso 1.000000  O     
 O6     1.0    0.314292    0.654402    0.461089 Biso 1.000000  O     
 O7     1.0    0.793709    0.154402    0.961089 Biso 1.000000  O     
 O8     1.0    0.814291    0.654402    0.678911 Biso 1.000000  O     
 O9     1.0    0.365676    0.571969    0.090428 Biso 1.000000  O     
 O10    1.0    0.242324    0.071969    0.549572 Biso 1.000000  O     
 O11    1.0    0.865676    0.571969    0.049572 Biso 1.000000  O     
 O12    1.0    0.742324    0.071969    0.590428 Biso 1.000000  O     
 O13    1.0    0.558791    0.573146    0.897021 Biso 1.000000  O     
 O14    1.0    0.049209    0.073146    0.742979 Biso 1.000000  O     
 O15    1.0    0.058791    0.573146    0.242979 Biso 1.000000  O     
 O16    1.0    0.549209    0.073146    0.397021 Biso 1.000000  O     
 O17    1.0    0.490805    0.432256    0.393911 Biso 1.000000  O     
 O18    1.0    0.117195    0.932257    0.246089 Biso 1.000000  O     
 O19    1.0    0.990805    0.432256    0.746089 Biso 1.000000  O     
 O20    1.0    0.617195    0.932257    0.893911 Biso 1.000000  O     
 O21    1.0    0.682888    0.430739    0.587947 Biso 1.000000  O     
 O22    1.0    0.925112    0.930739    0.052053 Biso 1.000000  O     
 O23    1.0    0.182888    0.430739    0.552053 Biso 1.000000  O     
 O24    1.0    0.425112    0.930739    0.087947 Biso 1.000000  O     
 C1     1.0    0.271175    0.250286    0.254721 Biso 1.000000  C     
 C2     1.0    0.336825    0.750286    0.385279 Biso 1.000000  C     
 C3     1.0    0.771175    0.250286    0.885279 Biso 1.000000  C     
 C4     1.0    0.836825    0.750286    0.754721 Biso 1.000000  C     
 C5     1.0    0.491062    0.531670    0.029497 Biso 1.000000  C     
 C6     1.0    0.116938    0.031670    0.610503 Biso 1.000000  C     
 C7     1.0    0.991062    0.531670    0.110503 Biso 1.000000  C     
 C8     1.0    0.616938    0.031670    0.529497 Biso 1.000000  C     
 C9     1.0    0.547368    0.460118    0.538908 Biso 1.000000  C     
 C10    1.0    0.060632    0.960118    0.101092 Biso 1.000000  C     
 C11    1.0    0.047368    0.460118    0.601092 Biso 1.000000  C     
 C12    1.0    0.560632    0.960118    0.038908 Biso 1.000000  C     
 H1     1.0    0.269922    0.252203    0.397087 Biso 1.000000  H     
 H2     1.0    0.338078    0.752203    0.242913 Biso 1.000000  H     
 H3     1.0    0.769922    0.252203    0.742913 Biso 1.000000  H     
 H4     1.0    0.838078    0.752203    0.897087 Biso 1.000000  H     
 H5     1.0    0.544553    0.456853    0.094306 Biso 1.000000  H     
 H6     1.0    0.063448    0.956853    0.545694 Biso 1.000000  H     
 H7     1.0    0.044552    0.456853    0.045694 Biso 1.000000  H     
 H8     1.0    0.563448    0.956853    0.594306 Biso 1.000000  H     
 H9     1.0    0.477105    0.512943    0.627190 Biso 1.000000  H     
 H10    1.0    0.130895    0.012943    0.012810 Biso 1.000000  H     
 H11    1.0    0.977105    0.512943    0.512810 Biso 1.000000  H     
 H12    1.0    0.630895    0.012943    0.127190 Biso 1.000000  H     
 H13    1.0    0.732540    0.349858    0.370196 Biso 1.000000  H     
 H14    1.0    0.875460    0.849858    0.269804 Biso 1.000000  H     
 H15    1.0    0.232539    0.349843    0.769739 Biso 1.000000  H     
 H16    1.0    0.375461    0.849843    0.870261 Biso 1.000000  H     
 H17    1.0    0.733679    0.284507    0.170257 Biso 1.000000  H     
 H18    1.0    0.874321    0.784507    0.469743 Biso 1.000000  H     
 H19    1.0    0.233686    0.284554    0.969722 Biso 1.000000  H     
 H20    1.0    0.374314    0.784554    0.670278 Biso 1.000000  H     
 H21    1.0    0.657392    0.213914    0.346904 Biso 1.000000  H     
 H22    1.0    0.950608    0.713914    0.293096 Biso 1.000000  H     
 H23    1.0    0.157391    0.213907    0.793127 Biso 1.000000  H     
 H24    1.0    0.450609    0.713907    0.846873 Biso 1.000000  H     
 H25    1.0    0.889492    0.183881    0.453939 Biso 1.000000  H     
 H26    1.0    0.718508    0.683881    0.186061 Biso 1.000000  H     
 H27    1.0    0.389485    0.183839    0.686100 Biso 1.000000  H     
 H28    1.0    0.218515    0.683839    0.953900 Biso 1.000000  H     
 H29    1.0    0.907229    0.156730    0.244953 Biso 1.000000  H     
 H30    1.0    0.700771    0.656730    0.395047 Biso 1.000000  H     
 H31    1.0    0.407231    0.156753    0.895103 Biso 1.000000  H     
 H32    1.0    0.200769    0.656753    0.744897 Biso 1.000000  H     
 N1     1.0    0.898004    0.222808    0.334360 Biso 1.000000  N     
 N2     1.0    0.709996    0.722808    0.305640 Biso 1.000000  N     
 N3     1.0    0.398003    0.222803    0.805652 Biso 1.000000  N     
 N4     1.0    0.209997    0.722803    0.834348 Biso 1.000000  N     
 N5     1.0    0.744832    0.270731    0.304009 Biso 1.000000  N     
 N6     1.0    0.863168    0.770731    0.335991 Biso 1.000000  N     
 N7     1.0    0.244833    0.270737    0.835979 Biso 1.000000  N     
 N8     1.0    0.363167    0.770737    0.804021 Biso 1.000000  N     
