_cell_length_a     8.6279
_cell_length_b    11.4587
_cell_length_c     7.7380
_cell_angle_alpha 90.0
_cell_angle_beta 90.0
_cell_angle_gamma 90.0
_space_group_IT_number                 1
 loop_
 _space_group_symop_operation_xyz 
 'x, y, z' 
 loop_ 
 _atom_site_label 
 _atom_site_occupancy 
 _atom_site_fract_x 
 _atom_site_fract_y
 _atom_site_fract_z
 _atom_site_adp_type
 _atom_site_U_iso_or_equiv
 _atom_site_type_symbol
 Co1    1.0    0.275531    0.500340    0.319931 Biso 1.000000  Co    
 Co2    1.0    0.320469    0.000340    0.320069 Biso 1.000000  Co    
 Co3    1.0    0.775531    0.500340    0.820069 Biso 1.000000  Co    
 Co4    1.0    0.820469    0.000340    0.819931 Biso 1.000000  Co    
 O1     1.0    0.249023    0.345253    0.174813 Biso 1.000000  O     
 O2     1.0    0.346977    0.845253    0.465187 Biso 1.000000  O     
 O3     1.0    0.749023    0.345253    0.965187 Biso 1.000000  O     
 O4     1.0    0.846977    0.845253    0.674813 Biso 1.000000  O     
 O5     1.0    0.282182    0.154452    0.178325 Biso 1.000000  O     
 O6     1.0    0.313818    0.654452    0.461675 Biso 1.000000  O     
 O7     1.0    0.782182    0.154452    0.961675 Biso 1.000000  O     
 O8     1.0    0.813818    0.654452    0.678325 Biso 1.000000  O     
 O9     1.0    0.367105    0.571630    0.090118 Biso 1.000000  O     
 O10    1.0    0.228895    0.071630    0.549882 Biso 1.000000  O     
 O11    1.0    0.867105    0.571630    0.049882 Biso 1.000000  O     
 O12    1.0    0.728895    0.071630    0.590118 Biso 1.000000  O     
 O13    1.0    0.560092    0.572471    0.896632 Biso 1.000000  O     
 O14    1.0    0.035908    0.072470    0.743368 Biso 1.000000  O     
 O15    1.0    0.060092    0.572471    0.243368 Biso 1.000000  O     
 O16    1.0    0.535908    0.072470    0.396632 Biso 1.000000  O     
 O17    1.0    0.492106    0.431581    0.394300 Biso 1.000000  O     
 O18    1.0    0.103894    0.931581    0.245700 Biso 1.000000  O     
 O19    1.0    0.992106    0.431581    0.745700 Biso 1.000000  O     
 O20    1.0    0.603894    0.931581    0.894300 Biso 1.000000  O     
 O21    1.0    0.684317    0.430400    0.588257 Biso 1.000000  O     
 O22    1.0    0.911683    0.930400    0.051743 Biso 1.000000  O     
 O23    1.0    0.184317    0.430400    0.551743 Biso 1.000000  O     
 O24    1.0    0.411683    0.930400    0.088257 Biso 1.000000  O     
 C1     1.0    0.265175    0.250215    0.254721 Biso 1.000000  C     
 C2     1.0    0.330825    0.750215    0.385279 Biso 1.000000  C     
 C3     1.0    0.765175    0.250215    0.885279 Biso 1.000000  C     
 C4     1.0    0.830825    0.750215    0.754721 Biso 1.000000  C     
 C5     1.0    0.493758    0.532696    0.030674 Biso 1.000000  C     
 C6     1.0    0.102242    0.032696    0.609326 Biso 1.000000  C     
 C7     1.0    0.993758    0.532696    0.109326 Biso 1.000000  C     
 C8     1.0    0.602242    0.032696    0.530674 Biso 1.000000  C     
 C9     1.0    0.550064    0.461145    0.537731 Biso 1.000000  C     
 C10    1.0    0.045936    0.961145    0.102269 Biso 1.000000  C     
 C11    1.0    0.050064    0.461145    0.602269 Biso 1.000000  C     
 C12    1.0    0.545936    0.961145    0.037731 Biso 1.000000  C     
 H1     1.0    0.263922    0.251652    0.397087 Biso 1.000000  H     
 H2     1.0    0.332078    0.751652    0.242913 Biso 1.000000  H     
 H3     1.0    0.763922    0.251652    0.742913 Biso 1.000000  H     
 H4     1.0    0.832078    0.751652    0.897087 Biso 1.000000  H     
 H5     1.0    0.549346    0.460629    0.098416 Biso 1.000000  H     
 H6     1.0    0.046655    0.960629    0.541584 Biso 1.000000  H     
 H7     1.0    0.049345    0.460629    0.041584 Biso 1.000000  H     
 H8     1.0    0.546655    0.960629    0.598416 Biso 1.000000  H     
 H9     1.0    0.481898    0.516719    0.623080 Biso 1.000000  H     
 H10    1.0    0.114102    0.016719    0.016920 Biso 1.000000  H     
 H11    1.0    0.981898    0.516719    0.516920 Biso 1.000000  H     
 H12    1.0    0.614102    0.016719    0.123080 Biso 1.000000  H     
 H13    1.0    0.726329    0.356069    0.326286 Biso 1.000000  H     
 H14    1.0    0.869671    0.856069    0.313714 Biso 1.000000  H     
 H15    1.0    0.226332    0.356067    0.813576 Biso 1.000000  H     
 H16    1.0    0.369668    0.856067    0.826424 Biso 1.000000  H     
 H17    1.0    0.727163    0.255898    0.160944 Biso 1.000000  H     
 H18    1.0    0.868837    0.755898    0.479056 Biso 1.000000  H     
 H19    1.0    0.227177    0.255997    0.979054 Biso 1.000000  H     
 H20    1.0    0.368823    0.755997    0.660946 Biso 1.000000  H     
 H21    1.0    0.651576    0.220993    0.359923 Biso 1.000000  H     
 H22    1.0    0.944424    0.720993    0.280077 Biso 1.000000  H     
 H23    1.0    0.151572    0.220970    0.780130 Biso 1.000000  H     
 H24    1.0    0.444428    0.720970    0.859870 Biso 1.000000  H     
 H25    1.0    0.884055    0.212424    0.474178 Biso 1.000000  H     
 H26    1.0    0.711945    0.712424    0.165822 Biso 1.000000  H     
 H27    1.0    0.384041    0.212326    0.665862 Biso 1.000000  H     
 H28    1.0    0.211959    0.712326    0.974138 Biso 1.000000  H     
 H29    1.0    0.901335    0.147288    0.284420 Biso 1.000000  H     
 H30    1.0    0.694665    0.647288    0.355580 Biso 1.000000  H     
 H31    1.0    0.401335    0.147308    0.855707 Biso 1.000000  H     
 H32    1.0    0.194665    0.647308    0.784293 Biso 1.000000  H     
 N1     1.0    0.892123    0.227486    0.343282 Biso 1.000000  N     
 N2     1.0    0.703877    0.727486    0.296718 Biso 1.000000  N     
 N3     1.0    0.392121    0.227470    0.796737 Biso 1.000000  N     
 N4     1.0    0.203879    0.727470    0.843263 Biso 1.000000  N     
 N5     1.0    0.738713    0.267677    0.295073 Biso 1.000000  N     
 N6     1.0    0.857287    0.767677    0.344927 Biso 1.000000  N     
 N7     1.0    0.238715    0.267693    0.844908 Biso 1.000000  N     
 N8     1.0    0.357285    0.767693    0.795092 Biso 1.000000  N     
