_cell_length_a     8.6279
_cell_length_b    11.4587
_cell_length_c     7.7380
_cell_angle_alpha 90.0
_cell_angle_beta 90.0
_cell_angle_gamma 90.0
_space_group_IT_number                 1
 loop_
 _space_group_symop_operation_xyz 
 'x, y, z' 
 loop_ 
 _atom_site_label 
 _atom_site_occupancy 
 _atom_site_fract_x 
 _atom_site_fract_y
 _atom_site_fract_z
 _atom_site_adp_type
 _atom_site_U_iso_or_equiv
 _atom_site_type_symbol
 Co1    1.0    0.277020    0.500226    0.319954 Biso 1.000000  Co    
 Co2    1.0    0.306980    0.000226    0.320046 Biso 1.000000  Co    
 Co3    1.0    0.777020    0.500226    0.820046 Biso 1.000000  Co    
 Co4    1.0    0.806980    0.000226    0.819954 Biso 1.000000  Co    
 O1     1.0    0.248550    0.345302    0.175398 Biso 1.000000  O     
 O2     1.0    0.335451    0.845302    0.464602 Biso 1.000000  O     
 O3     1.0    0.748549    0.345302    0.964602 Biso 1.000000  O     
 O4     1.0    0.835450    0.845302    0.675398 Biso 1.000000  O     
 O5     1.0    0.270655    0.154501    0.177740 Biso 1.000000  O     
 O6     1.0    0.313345    0.654501    0.462260 Biso 1.000000  O     
 O7     1.0    0.770656    0.154501    0.962260 Biso 1.000000  O     
 O8     1.0    0.813345    0.654501    0.677740 Biso 1.000000  O     
 O9     1.0    0.368535    0.571292    0.089808 Biso 1.000000  O     
 O10    1.0    0.215465    0.071292    0.550192 Biso 1.000000  O     
 O11    1.0    0.868535    0.571292    0.050192 Biso 1.000000  O     
 O12    1.0    0.715465    0.071292    0.589808 Biso 1.000000  O     
 O13    1.0    0.561392    0.571795    0.896244 Biso 1.000000  O     
 O14    1.0    0.022608    0.071795    0.743756 Biso 1.000000  O     
 O15    1.0    0.061392    0.571795    0.243756 Biso 1.000000  O     
 O16    1.0    0.522608    0.071795    0.396244 Biso 1.000000  O     
 O17    1.0    0.493406    0.430905    0.394688 Biso 1.000000  O     
 O18    1.0    0.090594    0.930906    0.245312 Biso 1.000000  O     
 O19    1.0    0.993406    0.430905    0.745312 Biso 1.000000  O     
 O20    1.0    0.590594    0.930906    0.894688 Biso 1.000000  O     
 O21    1.0    0.685747    0.430062    0.588567 Biso 1.000000  O     
 O22    1.0    0.898253    0.930062    0.051433 Biso 1.000000  O     
 O23    1.0    0.185747    0.430062    0.551433 Biso 1.000000  O     
 O24    1.0    0.398253    0.930062    0.088567 Biso 1.000000  O     
 C1     1.0    0.259175    0.250143    0.254721 Biso 1.000000  C     
 C2     1.0    0.324825    0.750143    0.385279 Biso 1.000000  C     
 C3     1.0    0.759175    0.250143    0.885279 Biso 1.000000  C     
 C4     1.0    0.824825    0.750143    0.754721 Biso 1.000000  C     
 C5     1.0    0.496455    0.533722    0.031850 Biso 1.000000  C     
 C6     1.0    0.087545    0.033723    0.608150 Biso 1.000000  C     
 C7     1.0    0.996455    0.533722    0.108150 Biso 1.000000  C     
 C8     1.0    0.587545    0.033723    0.531850 Biso 1.000000  C     
 C9     1.0    0.552761    0.462172    0.536555 Biso 1.000000  C     
 C10    1.0    0.031239    0.962171    0.103445 Biso 1.000000  C     
 C11    1.0    0.052761    0.462172    0.603445 Biso 1.000000  C     
 C12    1.0    0.531239    0.962171    0.036555 Biso 1.000000  C     
 H1     1.0    0.257922    0.251102    0.397087 Biso 1.000000  H     
 H2     1.0    0.326078    0.751102    0.242913 Biso 1.000000  H     
 H3     1.0    0.757922    0.251102    0.742913 Biso 1.000000  H     
 H4     1.0    0.826078    0.751102    0.897087 Biso 1.000000  H     
 H5     1.0    0.554138    0.464404    0.102527 Biso 1.000000  H     
 H6     1.0    0.029862    0.964404    0.537473 Biso 1.000000  H     
 H7     1.0    0.054138    0.464404    0.037473 Biso 1.000000  H     
 H8     1.0    0.529862    0.964404    0.602527 Biso 1.000000  H     
 H9     1.0    0.486691    0.520494    0.618969 Biso 1.000000  H     
 H10    1.0    0.097309    0.020494    0.021031 Biso 1.000000  H     
 H11    1.0    0.986690    0.520494    0.521031 Biso 1.000000  H     
 H12    1.0    0.597309    0.020494    0.118969 Biso 1.000000  H     
 H13    1.0    0.719846    0.353793    0.281877 Biso 1.000000  H     
 H14    1.0    0.864154    0.853793    0.358123 Biso 1.000000  H     
 H15    1.0    0.219856    0.353831    0.857922 Biso 1.000000  H     
 H16    1.0    0.364144    0.853831    0.782078 Biso 1.000000  H     
 H17    1.0    0.720754    0.226631    0.164055 Biso 1.000000  H     
 H18    1.0    0.863246    0.726631    0.475945 Biso 1.000000  H     
 H19    1.0    0.220772    0.226777    0.976003 Biso 1.000000  H     
 H20    1.0    0.363228    0.726777    0.663997 Biso 1.000000  H     
 H21    1.0    0.645796    0.230136    0.369858 Biso 1.000000  H     
 H22    1.0    0.938204    0.730136    0.270142 Biso 1.000000  H     
 H23    1.0    0.145789    0.230094    0.770205 Biso 1.000000  H     
 H24    1.0    0.438211    0.730094    0.869795 Biso 1.000000  H     
 H25    1.0    0.878581    0.243718    0.482259 Biso 1.000000  H     
 H26    1.0    0.705419    0.743718    0.157741 Biso 1.000000  H     
 H27    1.0    0.378560    0.243564    0.657740 Biso 1.000000  H     
 H28    1.0    0.205440    0.743564    0.982260 Biso 1.000000  H     
 H29    1.0    0.895715    0.145690    0.326549 Biso 1.000000  H     
 H30    1.0    0.688285    0.645690    0.313451 Biso 1.000000  H     
 H31    1.0    0.395709    0.145681    0.813647 Biso 1.000000  H     
 H32    1.0    0.188291    0.645681    0.826353 Biso 1.000000  H     
 N1     1.0    0.886272    0.233739    0.350273 Biso 1.000000  N     
 N2     1.0    0.697728    0.733739    0.289727 Biso 1.000000  N     
 N3     1.0    0.386267    0.233708    0.789745 Biso 1.000000  N     
 N4     1.0    0.197733    0.733708    0.850255 Biso 1.000000  N     
 N5     1.0    0.732564    0.263045    0.288068 Biso 1.000000  N     
 N6     1.0    0.851436    0.763045    0.351932 Biso 1.000000  N     
 N7     1.0    0.232569    0.263076    0.851914 Biso 1.000000  N     
 N8     1.0    0.351431    0.763076    0.788086 Biso 1.000000  N     
