_cell_length_a     8.6279
_cell_length_b    11.4587
_cell_length_c     7.7380
_cell_angle_alpha 90.0
_cell_angle_beta 90.0
_cell_angle_gamma 90.0
_space_group_IT_number                 1
 loop_
 _space_group_symop_operation_xyz 
 'x, y, z' 
 loop_ 
 _atom_site_label 
 _atom_site_occupancy 
 _atom_site_fract_x 
 _atom_site_fract_y
 _atom_site_fract_z
 _atom_site_adp_type
 _atom_site_U_iso_or_equiv
 _atom_site_type_symbol
 Co1    1.0    0.280000    0.500000    0.320000 Biso 1.000000  Co    
 Co2    1.0    0.280000    0.000000    0.320000 Biso 1.000000  Co    
 Co3    1.0    0.780000    0.500000    0.820000 Biso 1.000000  Co    
 Co4    1.0    0.780000    0.000000    0.820000 Biso 1.000000  Co    
 O1     1.0    0.247603    0.345400    0.176569 Biso 1.000000  O     
 O2     1.0    0.312397    0.845400    0.463431 Biso 1.000000  O     
 O3     1.0    0.747602    0.345400    0.963431 Biso 1.000000  O     
 O4     1.0    0.812397    0.845400    0.676569 Biso 1.000000  O     
 O5     1.0    0.247603    0.154600    0.176569 Biso 1.000000  O     
 O6     1.0    0.312397    0.654600    0.463431 Biso 1.000000  O     
 O7     1.0    0.747602    0.154600    0.963431 Biso 1.000000  O     
 O8     1.0    0.812397    0.654600    0.676569 Biso 1.000000  O     
 O9     1.0    0.371394    0.570615    0.089188 Biso 1.000000  O     
 O10    1.0    0.188606    0.070615    0.550813 Biso 1.000000  O     
 O11    1.0    0.871394    0.570615    0.050812 Biso 1.000000  O     
 O12    1.0    0.688606    0.070615    0.589187 Biso 1.000000  O     
 O13    1.0    0.563993    0.570445    0.895466 Biso 1.000000  O     
 O14    1.0   -0.003993    0.070444    0.744534 Biso 1.000000  O     
 O15    1.0    0.063993    0.570445    0.244534 Biso 1.000000  O     
 O16    1.0    0.496007    0.070444    0.395466 Biso 1.000000  O     
 O17    1.0    0.496007    0.429555    0.395466 Biso 1.000000  O     
 O18    1.0    0.063993    0.929555    0.244534 Biso 1.000000  O     
 O19    1.0    0.996007    0.429555    0.744534 Biso 1.000000  O     
 O20    1.0    0.563993    0.929555    0.895466 Biso 1.000000  O     
 O21    1.0    0.688606    0.429385    0.589187 Biso 1.000000  O     
 O22    1.0    0.871394    0.929385    0.050812 Biso 1.000000  O     
 O23    1.0    0.188606    0.429385    0.550813 Biso 1.000000  O     
 O24    1.0    0.371394    0.929385    0.089188 Biso 1.000000  O     
 C1     1.0    0.247175    0.250000    0.254721 Biso 1.000000  C     
 C2     1.0    0.312825    0.750000    0.385279 Biso 1.000000  C     
 C3     1.0    0.747175    0.250000    0.885279 Biso 1.000000  C     
 C4     1.0    0.812825    0.750000    0.754721 Biso 1.000000  C     
 C5     1.0    0.501847    0.535775    0.034202 Biso 1.000000  C     
 C6     1.0    0.058153    0.035776    0.605797 Biso 1.000000  C     
 C7     1.0    1.001847    0.535775    0.105798 Biso 1.000000  C     
 C8     1.0    0.558153    0.035776    0.534203 Biso 1.000000  C     
 C9     1.0    0.558153    0.464225    0.534203 Biso 1.000000  C     
 C10    1.0    0.001847    0.964225    0.105798 Biso 1.000000  C     
 C11    1.0    0.058153    0.464225    0.605797 Biso 1.000000  C     
 C12    1.0    0.501847    0.964225    0.034202 Biso 1.000000  C     
 H1     1.0    0.245922    0.250000    0.397087 Biso 1.000000  H     
 H2     1.0    0.314078    0.750000    0.242913 Biso 1.000000  H     
 H3     1.0    0.745922    0.250000    0.742913 Biso 1.000000  H     
 H4     1.0    0.814078    0.750000    0.897087 Biso 1.000000  H     
 H5     1.0    0.563724    0.471955    0.110748 Biso 1.000000  H     
 H6     1.0   -0.003723    0.971955    0.529252 Biso 1.000000  H     
 H7     1.0    0.063724    0.471955    0.029252 Biso 1.000000  H     
 H8     1.0    0.496277    0.971955    0.610748 Biso 1.000000  H     
 H9     1.0    0.496277    0.528045    0.610748 Biso 1.000000  H     
 H10    1.0    0.063724    0.028045    0.029252 Biso 1.000000  H     
 H11    1.0    0.996276    0.528045    0.529252 Biso 1.000000  H     
 H12    1.0    0.563724    0.028045    0.110748 Biso 1.000000  H     
 H13    1.0    0.706336    0.325376    0.205329 Biso 1.000000  H     
 H14    1.0    0.853664    0.825376    0.434671 Biso 1.000000  H     
 H15    1.0    0.206369    0.325558    0.934439 Biso 1.000000  H     
 H16    1.0    0.353631    0.825558    0.705561 Biso 1.000000  H     
 H17    1.0    0.708670    0.175382    0.205721 Biso 1.000000  H     
 H18    1.0    0.851330    0.675382    0.434279 Biso 1.000000  H     
 H19    1.0    0.208686    0.175564    0.934555 Biso 1.000000  H     
 H20    1.0    0.351314    0.675564    0.705445 Biso 1.000000  H     
 H21    1.0    0.634176    0.251881    0.377871 Biso 1.000000  H     
 H22    1.0    0.925824    0.751881    0.262129 Biso 1.000000  H     
 H23    1.0    0.134164    0.251800    0.762166 Biso 1.000000  H     
 H24    1.0    0.425836    0.751800    0.877834 Biso 1.000000  H     
 H25    1.0    0.867042    0.305012    0.460341 Biso 1.000000  H     
 H26    1.0    0.692958    0.805012    0.179659 Biso 1.000000  H     
 H27    1.0    0.367018    0.304789    0.679454 Biso 1.000000  H     
 H28    1.0    0.192982    0.804789    0.960546 Biso 1.000000  H     
 H29    1.0    0.885114    0.166164    0.405562 Biso 1.000000  H     
 H30    1.0    0.674886    0.666164    0.234438 Biso 1.000000  H     
 H31    1.0    0.385087    0.166025    0.734700 Biso 1.000000  H     
 H32    1.0    0.174913    0.666025    0.905300 Biso 1.000000  H     
 N1     1.0    0.874542    0.249189    0.356375 Biso 1.000000  N     
 N2     1.0    0.685458    0.749189    0.283625 Biso 1.000000  N     
 N3     1.0    0.374534    0.249127    0.783607 Biso 1.000000  N     
 N4     1.0    0.185466    0.749127    0.856393 Biso 1.000000  N     
 N5     1.0    0.720293    0.250830    0.281944 Biso 1.000000  N     
 N6     1.0    0.839707    0.750830    0.358056 Biso 1.000000  N     
 N7     1.0    0.220301    0.250892    0.858073 Biso 1.000000  N     
 N8     1.0    0.339699    0.750892    0.781927 Biso 1.000000  N     
