_cell_length_a                         8.390532
_cell_length_b                         12.508689
_cell_length_c                         8.858274
_cell_angle_alpha                      97.491516
_cell_angle_beta                       90.000000
_cell_angle_gamma                      90.000000
_space_group_IT_number                 1
 loop_
 _space_group_symop_operation_xyz 
 'x, y, z' 
 loop_ 
 _atom_site_label 
 _atom_site_occupancy 
 _atom_site_fract_x 
 _atom_site_fract_y
 _atom_site_fract_z
 _atom_site_adp_type
 _atom_site_U_iso_or_equiv
 _atom_site_type_symbol
 Mn1    1.0    0.248672    0.998984    0.750020 Biso 1.000000  Mn    
 Mn2    1.0    0.751328    0.998984    0.250020 Biso 1.000000  Mn    
 Mn3    1.0    0.748672    0.498984    0.250020 Biso 1.000000  Mn    
 Mn4    1.0    0.251328    0.498984    0.750020 Biso 1.000000  Mn    
 O1     1.0    0.358120    0.158479    0.743528 Biso 1.000000  O     
 O2     1.0    0.641880    0.158479    0.243528 Biso 1.000000  O     
 O3     1.0    0.858120    0.658479    0.243528 Biso 1.000000  O     
 O4     1.0    0.141880    0.658479    0.743528 Biso 1.000000  O     
 O5     1.0    0.479523    0.549679    0.665272 Biso 1.000000  O     
 O6     1.0    0.520477    0.549679    0.165272 Biso 1.000000  O     
 O7     1.0    0.979523    0.049679    0.165272 Biso 1.000000  O     
 O8     1.0    0.020477    0.049679    0.665272 Biso 1.000000  O     
 O9     1.0    0.167838    0.049033    0.985035 Biso 1.000000  O     
 O10    1.0    0.832162    0.049033    0.485035 Biso 1.000000  O     
 O11    1.0    0.667838    0.549033    0.485035 Biso 1.000000  O     
 O12    1.0    0.332162    0.549033    0.985035 Biso 1.000000  O     
 O13    1.0    0.024833    0.444029    0.836992 Biso 1.000000  O     
 O14    1.0    0.975167    0.444029    0.336992 Biso 1.000000  O     
 O15    1.0    0.524833    0.944029    0.336992 Biso 1.000000  O     
 O16    1.0    0.475167    0.944029    0.836992 Biso 1.000000  O     
 O17    1.0    0.333178    0.947123    0.514185 Biso 1.000000  O     
 O18    1.0    0.666822    0.947123    0.014185 Biso 1.000000  O     
 O19    1.0    0.833178    0.447123    0.014185 Biso 1.000000  O     
 O20    1.0    0.166822    0.447123    0.514185 Biso 1.000000  O     
 O21    1.0    0.360600    0.338229    0.754888 Biso 1.000000  O     
 O22    1.0    0.639400    0.338229    0.254888 Biso 1.000000  O     
 O23    1.0    0.860600    0.838229    0.254888 Biso 1.000000  O     
 O24    1.0    0.139400    0.838229    0.754888 Biso 1.000000  O     
 C1     1.0    0.219620    0.754521    0.424545 Biso 1.000000  C     
 C2     1.0    0.780380    0.754521    0.924545 Biso 1.000000  C     
 C3     1.0    0.719620    0.254521    0.924545 Biso 1.000000  C     
 C4     1.0    0.280380    0.254521    0.424545 Biso 1.000000  C     
 C5     1.0    0.288060    0.248508    0.749144 Biso 1.000000  C     
 C6     1.0    0.711940    0.248508    0.249144 Biso 1.000000  C     
 C7     1.0    0.788060    0.748508    0.249144 Biso 1.000000  C     
 C8     1.0    0.211940    0.748508    0.749144 Biso 1.000000  C     
 C9     1.0    0.027098    0.034424    0.029820 Biso 1.000000  C     
 C10    1.0    0.972902    0.034424    0.529820 Biso 1.000000  C     
 C11    1.0    0.527098    0.534424    0.529820 Biso 1.000000  C     
 C12    1.0    0.472902    0.534424    0.029820 Biso 1.000000  C     
 C13    1.0    0.471518    0.969504    0.468860 Biso 1.000000  C     
 C14    1.0    0.528482    0.969504    0.968860 Biso 1.000000  C     
 C15    1.0    0.971518    0.469504    0.968860 Biso 1.000000  C     
 C16    1.0    0.028482    0.469504    0.468860 Biso 1.000000  C     
 C17    1.0    0.259150    0.684652    0.152311 Biso 1.000000  C     
 C18    1.0    0.740850    0.684652    0.652311 Biso 1.000000  C     
 C19    1.0    0.759150    0.184652    0.652311 Biso 1.000000  C     
 C20    1.0    0.240850    0.184652    0.152311 Biso 1.000000  C     
 H1     1.0    0.348140    0.758487    0.445507 Biso 1.000000  H     
 H2     1.0    0.651860    0.758487    0.945507 Biso 1.000000  H     
 H3     1.0    0.848140    0.258487    0.945507 Biso 1.000000  H     
 H4     1.0    0.151860    0.258487    0.445507 Biso 1.000000  H     
 H5     1.0    0.157690    0.817263    0.499882 Biso 1.000000  H     
 H6     1.0    0.842310    0.817263    0.999882 Biso 1.000000  H     
 H7     1.0    0.657690    0.317263    0.999882 Biso 1.000000  H     
 H8     1.0    0.342310    0.317263    0.499882 Biso 1.000000  H     
 H9     1.0    0.175750    0.675218    0.443961 Biso 1.000000  H     
 H10    1.0    0.824250    0.675218    0.943961 Biso 1.000000  H     
 H11    1.0    0.675750    0.175218    0.943961 Biso 1.000000  H     
 H12    1.0    0.324250    0.175218    0.443961 Biso 1.000000  H     
 H13    1.0    0.155840    0.249844    0.749092 Biso 1.000000  H     
 H14    1.0    0.844160    0.249844    0.249092 Biso 1.000000  H     
 H15    1.0    0.655840    0.749844    0.249092 Biso 1.000000  H     
 H16    1.0    0.344160    0.749844    0.749092 Biso 1.000000  H     
 H17    1.0    0.440465    0.506535    0.443542 Biso 1.000000  H     
 H18    1.0    0.559535    0.506535    0.943542 Biso 1.000000  H     
 H19    1.0    0.940465    0.006535    0.943542 Biso 1.000000  H     
 H20    1.0    0.059535    0.006535    0.443542 Biso 1.000000  H     
 H21    1.0    0.049035    0.513965    0.051482 Biso 1.000000  H     
 H22    1.0    0.950965    0.513965    0.551482 Biso 1.000000  H     
 H23    1.0    0.549035    0.013965    0.551482 Biso 1.000000  H     
 H24    1.0    0.450965    0.013965    0.051482 Biso 1.000000  H     
 H25    1.0    0.238790    0.846082    0.247976 Biso 1.000000  H     
 H26    1.0    0.761210    0.846082    0.747976 Biso 1.000000  H     
 H27    1.0    0.738790    0.346082    0.747976 Biso 1.000000  H     
 H28    1.0    0.261210    0.346082    0.247976 Biso 1.000000  H     
 H29    1.0    0.065400    0.773058    0.243803 Biso 1.000000  H     
 H30    1.0    0.934600    0.773058    0.743803 Biso 1.000000  H     
 H31    1.0    0.565400    0.273058    0.743803 Biso 1.000000  H     
 H32    1.0    0.434600    0.273058    0.243803 Biso 1.000000  H     
 H33    1.0    0.229330    0.700674    0.037164 Biso 1.000000  H     
 H34    1.0    0.770670    0.700674    0.537164 Biso 1.000000  H     
 H35    1.0    0.729330    0.200674    0.537164 Biso 1.000000  H     
 H36    1.0    0.270670    0.200674    0.037164 Biso 1.000000  H     
 H37    1.0    0.388700    0.685237    0.166218 Biso 1.000000  H     
 H38    1.0    0.611300    0.685237    0.666218 Biso 1.000000  H     
 H39    1.0    0.888700    0.185237    0.666218 Biso 1.000000  H     
 H40    1.0    0.111300    0.185237    0.166218 Biso 1.000000  H     
 H41    1.0    0.211140    0.606928    0.174612 Biso 1.000000  H     
 H42    1.0    0.788860    0.606928    0.674612 Biso 1.000000  H     
 H43    1.0    0.711140    0.106928    0.674612 Biso 1.000000  H     
 H44    1.0    0.288860    0.106928    0.174612 Biso 1.000000  H     
 N1     1.0    0.189250    0.770823    0.263944 Biso 1.000000  N     
 N2     1.0    0.810750    0.770823    0.763944 Biso 1.000000  N     
 N3     1.0    0.689250    0.270823    0.763944 Biso 1.000000  N     
 N4     1.0    0.310750    0.270823    0.263944 Biso 1.000000  N     
