_cell_length_a                         8.390532
_cell_length_b                         12.508689
_cell_length_c                         8.858274
_cell_angle_alpha                      97.491516
_cell_angle_beta                       90.000000
_cell_angle_gamma                      90.000000
_space_group_IT_number                 1
 loop_
 _space_group_symop_operation_xyz 
 'x, y, z' 
 loop_ 
 _atom_site_label 
 _atom_site_occupancy 
 _atom_site_fract_x 
 _atom_site_fract_y
 _atom_site_fract_z
 _atom_site_adp_type
 _atom_site_U_iso_or_equiv
 _atom_site_type_symbol
 Mn1    1.0    0.248008    0.998476    0.750030 Biso 1.000000  Mn    
 Mn2    1.0    0.751992    0.998476    0.250030 Biso 1.000000  Mn    
 Mn3    1.0    0.748008    0.498476    0.250030 Biso 1.000000  Mn    
 Mn4    1.0    0.251992    0.498476    0.750030 Biso 1.000000  Mn    
 O1     1.0    0.357500    0.157656    0.743132 Biso 1.000000  O     
 O2     1.0    0.642500    0.157656    0.243132 Biso 1.000000  O     
 O3     1.0    0.857500    0.657656    0.243132 Biso 1.000000  O     
 O4     1.0    0.142500    0.657656    0.743132 Biso 1.000000  O     
 O5     1.0    0.480612    0.548106    0.665838 Biso 1.000000  O     
 O6     1.0    0.519388    0.548106    0.165838 Biso 1.000000  O     
 O7     1.0    0.980612    0.048106    0.165838 Biso 1.000000  O     
 O8     1.0    0.019388    0.048106    0.665838 Biso 1.000000  O     
 O9     1.0    0.168092    0.048072    0.984840 Biso 1.000000  O     
 O10    1.0    0.831908    0.048072    0.484840 Biso 1.000000  O     
 O11    1.0    0.668092    0.548072    0.484840 Biso 1.000000  O     
 O12    1.0    0.331908    0.548072    0.984840 Biso 1.000000  O     
 O13    1.0    0.025922    0.442456    0.837558 Biso 1.000000  O     
 O14    1.0    0.974078    0.442456    0.337558 Biso 1.000000  O     
 O15    1.0    0.525922    0.942456    0.337558 Biso 1.000000  O     
 O16    1.0    0.474078    0.942456    0.837558 Biso 1.000000  O     
 O17    1.0    0.333432    0.946162    0.513990 Biso 1.000000  O     
 O18    1.0    0.666568    0.946162    0.013990 Biso 1.000000  O     
 O19    1.0    0.833432    0.446162    0.013990 Biso 1.000000  O     
 O20    1.0    0.166568    0.446162    0.513990 Biso 1.000000  O     
 O21    1.0    0.361220    0.337406    0.754492 Biso 1.000000  O     
 O22    1.0    0.638780    0.337406    0.254492 Biso 1.000000  O     
 O23    1.0    0.861220    0.837406    0.254492 Biso 1.000000  O     
 O24    1.0    0.138780    0.837406    0.754492 Biso 1.000000  O     
 C1     1.0    0.219620    0.729189    0.410730 Biso 1.000000  C     
 C2     1.0    0.780380    0.729189    0.910730 Biso 1.000000  C     
 C3     1.0    0.719620    0.229189    0.910730 Biso 1.000000  C     
 C4     1.0    0.280380    0.229189    0.410730 Biso 1.000000  C     
 C5     1.0    0.288060    0.247762    0.748716 Biso 1.000000  C     
 C6     1.0    0.711940    0.247762    0.248716 Biso 1.000000  C     
 C7     1.0    0.788060    0.747762    0.248716 Biso 1.000000  C     
 C8     1.0    0.211940    0.747762    0.748716 Biso 1.000000  C     
 C9     1.0    0.026752    0.035406    0.029490 Biso 1.000000  C     
 C10    1.0    0.973248    0.035406    0.529490 Biso 1.000000  C     
 C11    1.0    0.526752    0.535406    0.529490 Biso 1.000000  C     
 C12    1.0    0.473248    0.535406    0.029490 Biso 1.000000  C     
 C13    1.0    0.471172    0.970486    0.468530 Biso 1.000000  C     
 C14    1.0    0.528828    0.970486    0.968530 Biso 1.000000  C     
 C15    1.0    0.971172    0.470486    0.968530 Biso 1.000000  C     
 C16    1.0    0.028828    0.470486    0.468530 Biso 1.000000  C     
 C17    1.0    0.259150    0.719988    0.132131 Biso 1.000000  C     
 C18    1.0    0.740850    0.719988    0.632131 Biso 1.000000  C     
 C19    1.0    0.759150    0.219988    0.632131 Biso 1.000000  C     
 C20    1.0    0.240850    0.219988    0.132131 Biso 1.000000  C     
 H1     1.0    0.348140    0.728495    0.431559 Biso 1.000000  H     
 H2     1.0    0.651860    0.728495    0.931559 Biso 1.000000  H     
 H3     1.0    0.848140    0.228495    0.931559 Biso 1.000000  H     
 H4     1.0    0.151860    0.228495    0.431559 Biso 1.000000  H     
 H5     1.0    0.157690    0.774781    0.506931 Biso 1.000000  H     
 H6     1.0    0.842310    0.774781    1.006931 Biso 1.000000  H     
 H7     1.0    0.657690    0.274781    1.006931 Biso 1.000000  H     
 H8     1.0    0.342310    0.274781    0.506931 Biso 1.000000  H     
 H9     1.0    0.175750    0.646259    0.393504 Biso 1.000000  H     
 H10    1.0    0.824250    0.646259    0.893504 Biso 1.000000  H     
 H11    1.0    0.675750    0.146259    0.893504 Biso 1.000000  H     
 H12    1.0    0.324250    0.146259    0.393504 Biso 1.000000  H     
 H13    1.0    0.155840    0.249766    0.748638 Biso 1.000000  H     
 H14    1.0    0.844160    0.249766    0.248638 Biso 1.000000  H     
 H15    1.0    0.655840    0.749766    0.248638 Biso 1.000000  H     
 H16    1.0    0.344160    0.749766    0.748638 Biso 1.000000  H     
 H17    1.0    0.437840    0.511660    0.442298 Biso 1.000000  H     
 H18    1.0    0.562160    0.511660    0.942298 Biso 1.000000  H     
 H19    1.0    0.937840    0.011660    0.942298 Biso 1.000000  H     
 H20    1.0    0.062160    0.011660    0.442298 Biso 1.000000  H     
 H21    1.0    0.046410    0.519090    0.050238 Biso 1.000000  H     
 H22    1.0    0.953590    0.519090    0.550238 Biso 1.000000  H     
 H23    1.0    0.546410    0.019090    0.550238 Biso 1.000000  H     
 H24    1.0    0.453590    0.019090    0.050238 Biso 1.000000  H     
 H25    1.0    0.238790    0.858962    0.290275 Biso 1.000000  H     
 H26    1.0    0.761210    0.858962    0.790275 Biso 1.000000  H     
 H27    1.0    0.738790    0.358962    0.790275 Biso 1.000000  H     
 H28    1.0    0.261210    0.358962    0.290275 Biso 1.000000  H     
 H29    1.0    0.065400    0.787465    0.254337 Biso 1.000000  H     
 H30    1.0    0.934600    0.787465    0.754337 Biso 1.000000  H     
 H31    1.0    0.565400    0.287465    0.754337 Biso 1.000000  H     
 H32    1.0    0.434600    0.287465    0.254337 Biso 1.000000  H     
 H33    1.0    0.229330    0.761292    0.034351 Biso 1.000000  H     
 H34    1.0    0.770670    0.761292    0.534351 Biso 1.000000  H     
 H35    1.0    0.729330    0.261292    0.534351 Biso 1.000000  H     
 H36    1.0    0.270670    0.261292    0.034351 Biso 1.000000  H     
 H37    1.0    0.388700    0.717499    0.145051 Biso 1.000000  H     
 H38    1.0    0.611300    0.717499    0.645051 Biso 1.000000  H     
 H39    1.0    0.888700    0.217499    0.645051 Biso 1.000000  H     
 H40    1.0    0.111300    0.217499    0.145051 Biso 1.000000  H     
 H41    1.0    0.211140    0.637988    0.118227 Biso 1.000000  H     
 H42    1.0    0.788860    0.637988    0.618227 Biso 1.000000  H     
 H43    1.0    0.711140    0.137988    0.618227 Biso 1.000000  H     
 H44    1.0    0.288860    0.137988    0.118227 Biso 1.000000  H     
 N1     1.0    0.189250    0.780803    0.271690 Biso 1.000000  N     
 N2     1.0    0.810750    0.780803    0.771690 Biso 1.000000  N     
 N3     1.0    0.689250    0.280803    0.771690 Biso 1.000000  N     
 N4     1.0    0.310750    0.280803    0.271690 Biso 1.000000  N     
