_cell_length_a                         8.390532
_cell_length_b                         12.508689
_cell_length_c                         8.858274
_cell_angle_alpha                      97.491516
_cell_angle_beta                       90.000000
_cell_angle_gamma                      90.000000
_space_group_IT_number                 1
 loop_
 _space_group_symop_operation_xyz 
 'x, y, z' 
 loop_ 
 _atom_site_label 
 _atom_site_occupancy 
 _atom_site_fract_x 
 _atom_site_fract_y
 _atom_site_fract_z
 _atom_site_adp_type
 _atom_site_U_iso_or_equiv
 _atom_site_type_symbol
 Mn1    1.0    0.249336    0.999492    0.750010 Biso 1.000000  Mn    
 Mn2    1.0    0.750664    0.999492    0.250010 Biso 1.000000  Mn    
 Mn3    1.0    0.749336    0.499492    0.250010 Biso 1.000000  Mn    
 Mn4    1.0    0.250664    0.499492    0.750010 Biso 1.000000  Mn    
 O1     1.0    0.358740    0.159302    0.743924 Biso 1.000000  O     
 O2     1.0    0.641260    0.159302    0.243924 Biso 1.000000  O     
 O3     1.0    0.858740    0.659302    0.243924 Biso 1.000000  O     
 O4     1.0    0.141260    0.659302    0.743924 Biso 1.000000  O     
 O5     1.0    0.478434    0.551252    0.664706 Biso 1.000000  O     
 O6     1.0    0.521566    0.551252    0.164706 Biso 1.000000  O     
 O7     1.0    0.978434    0.051252    0.164706 Biso 1.000000  O     
 O8     1.0    0.021566    0.051252    0.664706 Biso 1.000000  O     
 O9     1.0    0.167584    0.049994    0.985230 Biso 1.000000  O     
 O10    1.0    0.832416    0.049994    0.485230 Biso 1.000000  O     
 O11    1.0    0.667584    0.549994    0.485230 Biso 1.000000  O     
 O12    1.0    0.332416    0.549994    0.985230 Biso 1.000000  O     
 O13    1.0    0.023744    0.445602    0.836426 Biso 1.000000  O     
 O14    1.0    0.976256    0.445602    0.336426 Biso 1.000000  O     
 O15    1.0    0.523744    0.945602    0.336426 Biso 1.000000  O     
 O16    1.0    0.476256    0.945602    0.836426 Biso 1.000000  O     
 O17    1.0    0.332924    0.948084    0.514380 Biso 1.000000  O     
 O18    1.0    0.667076    0.948084    0.014380 Biso 1.000000  O     
 O19    1.0    0.832924    0.448084    0.014380 Biso 1.000000  O     
 O20    1.0    0.167076    0.448084    0.514380 Biso 1.000000  O     
 O21    1.0    0.359980    0.339052    0.755284 Biso 1.000000  O     
 O22    1.0    0.640020    0.339052    0.255284 Biso 1.000000  O     
 O23    1.0    0.859980    0.839052    0.255284 Biso 1.000000  O     
 O24    1.0    0.140020    0.839052    0.755284 Biso 1.000000  O     
 C1     1.0    0.219620    0.781344    0.422690 Biso 1.000000  C     
 C2     1.0    0.780380    0.781344    0.922690 Biso 1.000000  C     
 C3     1.0    0.719620    0.281344    0.922690 Biso 1.000000  C     
 C4     1.0    0.280380    0.281344    0.422690 Biso 1.000000  C     
 C5     1.0    0.288060    0.249254    0.749572 Biso 1.000000  C     
 C6     1.0    0.711940    0.249254    0.249572 Biso 1.000000  C     
 C7     1.0    0.788060    0.749254    0.249572 Biso 1.000000  C     
 C8     1.0    0.211940    0.749254    0.749572 Biso 1.000000  C     
 C9     1.0    0.027444    0.033442    0.030150 Biso 1.000000  C     
 C10    1.0    0.972556    0.033442    0.530150 Biso 1.000000  C     
 C11    1.0    0.527444    0.533442    0.530150 Biso 1.000000  C     
 C12    1.0    0.472556    0.533442    0.030150 Biso 1.000000  C     
 C13    1.0    0.471864    0.968522    0.469190 Biso 1.000000  C     
 C14    1.0    0.528136    0.968522    0.969190 Biso 1.000000  C     
 C15    1.0    0.971864    0.468522    0.969190 Biso 1.000000  C     
 C16    1.0    0.028136    0.468522    0.469190 Biso 1.000000  C     
 C17    1.0    0.259150    0.657646    0.183468 Biso 1.000000  C     
 C18    1.0    0.740850    0.657646    0.683468 Biso 1.000000  C     
 C19    1.0    0.759150    0.157646    0.683468 Biso 1.000000  C     
 C20    1.0    0.240850    0.157646    0.183468 Biso 1.000000  C     
 H1     1.0    0.348140    0.789581    0.441732 Biso 1.000000  H     
 H2     1.0    0.651860    0.789581    0.941732 Biso 1.000000  H     
 H3     1.0    0.848140    0.289581    0.941732 Biso 1.000000  H     
 H4     1.0    0.151860    0.289581    0.441732 Biso 1.000000  H     
 H5     1.0    0.157690    0.855094    0.469787 Biso 1.000000  H     
 H6     1.0    0.842310    0.855094    0.969787 Biso 1.000000  H     
 H7     1.0    0.657690    0.355094    0.969787 Biso 1.000000  H     
 H8     1.0    0.342310    0.355094    0.469787 Biso 1.000000  H     
 H9     1.0    0.175750    0.713430    0.476847 Biso 1.000000  H     
 H10    1.0    0.824250    0.713430    0.976847 Biso 1.000000  H     
 H11    1.0    0.675750    0.213430    0.976847 Biso 1.000000  H     
 H12    1.0    0.324250    0.213430    0.476847 Biso 1.000000  H     
 H13    1.0    0.155840    0.249922    0.749546 Biso 1.000000  H     
 H14    1.0    0.844160    0.249922    0.249546 Biso 1.000000  H     
 H15    1.0    0.655840    0.749922    0.249546 Biso 1.000000  H     
 H16    1.0    0.344160    0.749922    0.749546 Biso 1.000000  H     
 H17    1.0    0.443090    0.501410    0.444786 Biso 1.000000  H     
 H18    1.0    0.556910    0.501410    0.944786 Biso 1.000000  H     
 H19    1.0    0.943090    0.001410    0.944786 Biso 1.000000  H     
 H20    1.0    0.056910    0.001410    0.444786 Biso 1.000000  H     
 H21    1.0    0.051660    0.508840    0.052726 Biso 1.000000  H     
 H22    1.0    0.948340    0.508840    0.552726 Biso 1.000000  H     
 H23    1.0    0.551660    0.008840    0.552726 Biso 1.000000  H     
 H24    1.0    0.448340    0.008840    0.052726 Biso 1.000000  H     
 H25    1.0    0.238790    0.825731    0.207290 Biso 1.000000  H     
 H26    1.0    0.761210    0.825731    0.707290 Biso 1.000000  H     
 H27    1.0    0.738790    0.325731    0.707290 Biso 1.000000  H     
 H28    1.0    0.261210    0.325731    0.207290 Biso 1.000000  H     
 H29    1.0    0.065400    0.758327    0.235291 Biso 1.000000  H     
 H30    1.0    0.934600    0.758327    0.735291 Biso 1.000000  H     
 H31    1.0    0.565400    0.258327    0.735291 Biso 1.000000  H     
 H32    1.0    0.434600    0.258327    0.235291 Biso 1.000000  H     
 H33    1.0    0.229330    0.646817    0.062226 Biso 1.000000  H     
 H34    1.0    0.770670    0.646817    0.562226 Biso 1.000000  H     
 H35    1.0    0.729330    0.146817    0.562226 Biso 1.000000  H     
 H36    1.0    0.270670    0.146817    0.062226 Biso 1.000000  H     
 H37    1.0    0.388700    0.661249    0.197002 Biso 1.000000  H     
 H38    1.0    0.611300    0.661249    0.697002 Biso 1.000000  H     
 H39    1.0    0.888700    0.161249    0.697002 Biso 1.000000  H     
 H40    1.0    0.111300    0.161249    0.197002 Biso 1.000000  H     
 H41    1.0    0.211140    0.591807    0.239791 Biso 1.000000  H     
 H42    1.0    0.788860    0.591807    0.739791 Biso 1.000000  H     
 H43    1.0    0.711140    0.091807    0.739791 Biso 1.000000  H     
 H44    1.0    0.288860    0.091807    0.239791 Biso 1.000000  H     
 N1     1.0    0.189250    0.760738    0.256248 Biso 1.000000  N     
 N2     1.0    0.810750    0.760738    0.756248 Biso 1.000000  N     
 N3     1.0    0.689250    0.260738    0.756248 Biso 1.000000  N     
 N4     1.0    0.310750    0.260738    0.256248 Biso 1.000000  N     
