_cell_length_a                         8.390532
_cell_length_b                         12.508689
_cell_length_c                         8.858274
_cell_angle_alpha                      97.491516
_cell_angle_beta                       90.000000
_cell_angle_gamma                      90.000000
_space_group_IT_number                 1
 loop_
 _space_group_symop_operation_xyz 
 'x, y, z' 
 loop_ 
 _atom_site_label 
 _atom_site_occupancy 
 _atom_site_fract_x 
 _atom_site_fract_y
 _atom_site_fract_z
 _atom_site_adp_type
 _atom_site_U_iso_or_equiv
 _atom_site_type_symbol
 Mn1    1.0    0.253320    1.002540    0.749950 Biso 1.000000  Mn    
 Mn2    1.0    0.746680    1.002540    0.249950 Biso 1.000000  Mn    
 Mn3    1.0    0.753320    0.502540    0.249950 Biso 1.000000  Mn    
 Mn4    1.0    0.246680    0.502540    0.749950 Biso 1.000000  Mn    
 O1     1.0    0.362460    0.164240    0.746300 Biso 1.000000  O     
 O2     1.0    0.637540    0.164240    0.246300 Biso 1.000000  O     
 O3     1.0    0.862460    0.664240    0.246300 Biso 1.000000  O     
 O4     1.0    0.137540    0.664240    0.746300 Biso 1.000000  O     
 O5     1.0    0.471900    0.560690    0.661310 Biso 1.000000  O     
 O6     1.0    0.528100    0.560690    0.161310 Biso 1.000000  O     
 O7     1.0    0.971900    0.060690    0.161310 Biso 1.000000  O     
 O8     1.0    0.028100    0.060690    0.661310 Biso 1.000000  O     
 O9     1.0    0.166060    0.055760    0.986400 Biso 1.000000  O     
 O10    1.0    0.833940    0.055760    0.486400 Biso 1.000000  O     
 O11    1.0    0.666060    0.555760    0.486400 Biso 1.000000  O     
 O12    1.0    0.333940    0.555760    0.986400 Biso 1.000000  O     
 O13    1.0    0.017210    0.455040    0.833030 Biso 1.000000  O     
 O14    1.0    0.982790    0.455040    0.333030 Biso 1.000000  O     
 O15    1.0    0.517210    0.955040    0.333030 Biso 1.000000  O     
 O16    1.0    0.482790    0.955040    0.833030 Biso 1.000000  O     
 O17    1.0    0.331400    0.953850    0.515550 Biso 1.000000  O     
 O18    1.0    0.668600    0.953850    0.015550 Biso 1.000000  O     
 O19    1.0    0.831400    0.453850    0.015550 Biso 1.000000  O     
 O20    1.0    0.168600    0.453850    0.515550 Biso 1.000000  O     
 O21    1.0    0.356260    0.343990    0.757660 Biso 1.000000  O     
 O22    1.0    0.643740    0.343990    0.257660 Biso 1.000000  O     
 O23    1.0    0.856260    0.843990    0.257660 Biso 1.000000  O     
 O24    1.0    0.143740    0.843990    0.757660 Biso 1.000000  O     
 C1     1.0    0.219620    0.803700    0.154340 Biso 1.000000  C     
 C2     1.0    0.780380    0.803700    0.654340 Biso 1.000000  C     
 C3     1.0    0.719620    0.303700    0.654340 Biso 1.000000  C     
 C4     1.0    0.280380    0.303700    0.154340 Biso 1.000000  C     
 C5     1.0    0.288060    0.253730    0.752140 Biso 1.000000  C     
 C6     1.0    0.711940    0.253730    0.252140 Biso 1.000000  C     
 C7     1.0    0.788060    0.753730    0.252140 Biso 1.000000  C     
 C8     1.0    0.211940    0.753730    0.752140 Biso 1.000000  C     
 C9     1.0    0.029520    0.027550    0.032130 Biso 1.000000  C     
 C10    1.0    0.970480    0.027550    0.532130 Biso 1.000000  C     
 C11    1.0    0.529520    0.527550    0.532130 Biso 1.000000  C     
 C12    1.0    0.470480    0.527550    0.032130 Biso 1.000000  C     
 C13    1.0    0.473940    0.962630    0.471170 Biso 1.000000  C     
 C14    1.0    0.526060    0.962630    0.971170 Biso 1.000000  C     
 C15    1.0    0.973940    0.462630    0.971170 Biso 1.000000  C     
 C16    1.0    0.026060    0.462630    0.471170 Biso 1.000000  C     
 C17    1.0    0.259150    0.694890    0.365900 Biso 1.000000  C     
 C18    1.0    0.740850    0.694890    0.865900 Biso 1.000000  C     
 C19    1.0    0.759150    0.194890    0.865900 Biso 1.000000  C     
 C20    1.0    0.240850    0.194890    0.365900 Biso 1.000000  C     
 H1     1.0    0.348140    0.813060    0.139680 Biso 1.000000  H     
 H2     1.0    0.651860    0.813060    0.639680 Biso 1.000000  H     
 H3     1.0    0.848140    0.313060    0.639680 Biso 1.000000  H     
 H4     1.0    0.151860    0.313060    0.139680 Biso 1.000000  H     
 H5     1.0    0.157690    0.803680    0.045780 Biso 1.000000  H     
 H6     1.0    0.842310    0.803680    0.545780 Biso 1.000000  H     
 H7     1.0    0.657690    0.303680    0.545780 Biso 1.000000  H     
 H8     1.0    0.342310    0.303680    0.045780 Biso 1.000000  H     
 H9     1.0    0.175750    0.869970    0.236370 Biso 1.000000  H     
 H10    1.0    0.824250    0.869970    0.736370 Biso 1.000000  H     
 H11    1.0    0.675750    0.369970    0.736370 Biso 1.000000  H     
 H12    1.0    0.324250    0.369970    0.236370 Biso 1.000000  H     
 H13    1.0    0.155840    0.250390    0.752270 Biso 1.000000  H     
 H14    1.0    0.844160    0.250390    0.252270 Biso 1.000000  H     
 H15    1.0    0.655840    0.750390    0.252270 Biso 1.000000  H     
 H16    1.0    0.344160    0.750390    0.752270 Biso 1.000000  H     
 H17    1.0    0.458840    0.470660    0.452250 Biso 1.000000  H     
 H18    1.0    0.541160    0.470660    0.952250 Biso 1.000000  H     
 H19    1.0    0.958840   -0.029340    0.952250 Biso 1.000000  H     
 H20    1.0    0.041160   -0.029340    0.452250 Biso 1.000000  H     
 H21    1.0    0.067410    0.478090    0.060190 Biso 1.000000  H     
 H22    1.0    0.932590    0.478090    0.560190 Biso 1.000000  H     
 H23    1.0    0.567410   -0.021910    0.560190 Biso 1.000000  H     
 H24    1.0    0.432590   -0.021910    0.060190 Biso 1.000000  H     
 H25    1.0    0.238790    0.638110    0.133840 Biso 1.000000  H     
 H26    1.0    0.761210    0.638110    0.633840 Biso 1.000000  H     
 H27    1.0    0.738790    0.138110    0.633840 Biso 1.000000  H     
 H28    1.0    0.261210    0.138110    0.133840 Biso 1.000000  H     
 H29    1.0    0.065400    0.686390    0.219990 Biso 1.000000  H     
 H30    1.0    0.934600    0.686390    0.719990 Biso 1.000000  H     
 H31    1.0    0.565400    0.186390    0.719990 Biso 1.000000  H     
 H32    1.0    0.434600    0.186390    0.219990 Biso 1.000000  H     
 H33    1.0    0.229330    0.617230    0.402870 Biso 1.000000  H     
 H34    1.0    0.770670    0.617230    0.902870 Biso 1.000000  H     
 H35    1.0    0.729330    0.117230    0.902870 Biso 1.000000  H     
 H36    1.0    0.270670    0.117230    0.402870 Biso 1.000000  H     
 H37    1.0    0.388700    0.702520    0.358530 Biso 1.000000  H     
 H38    1.0    0.611300    0.702520    0.858530 Biso 1.000000  H     
 H39    1.0    0.888700    0.202520    0.858530 Biso 1.000000  H     
 H40    1.0    0.111300    0.202520    0.358530 Biso 1.000000  H     
 H41    1.0    0.211140    0.761730    0.444720 Biso 1.000000  H     
 H42    1.0    0.788860    0.761730    0.944720 Biso 1.000000  H     
 H43    1.0    0.711140    0.261730    0.944720 Biso 1.000000  H     
 H44    1.0    0.288860    0.261730    0.444720 Biso 1.000000  H     
 N1     1.0    0.189250    0.699580    0.212870 Biso 1.000000  N     
 N2     1.0    0.810750    0.699580    0.712870 Biso 1.000000  N     
 N3     1.0    0.689250    0.199580    0.712870 Biso 1.000000  N     
 N4     1.0    0.310750    0.199580    0.212870 Biso 1.000000  N     
