_cell_length_a                         8.390532
_cell_length_b                         12.508689
_cell_length_c                         8.858274
_cell_angle_alpha                      97.491516
_cell_angle_beta                       90.000000
_cell_angle_gamma                      90.000000
_space_group_IT_number                 1
 loop_
 _space_group_symop_operation_xyz 
 'x, y, z' 
 loop_ 
 _atom_site_label 
 _atom_site_occupancy 
 _atom_site_fract_x 
 _atom_site_fract_y
 _atom_site_fract_z
 _atom_site_adp_type
 _atom_site_U_iso_or_equiv
 _atom_site_type_symbol
 Mn1    1.0    0.247344    0.997968    0.750040 Biso 1.000000  Mn    
 Mn2    1.0    0.752656    0.997968    0.250040 Biso 1.000000  Mn    
 Mn3    1.0    0.747344    0.497968    0.250040 Biso 1.000000  Mn    
 Mn4    1.0    0.252656    0.497968    0.750040 Biso 1.000000  Mn    
 O1     1.0    0.356880    0.156833    0.742736 Biso 1.000000  O     
 O2     1.0    0.643120    0.156833    0.242736 Biso 1.000000  O     
 O3     1.0    0.856880    0.656833    0.242736 Biso 1.000000  O     
 O4     1.0    0.143120    0.656833    0.742736 Biso 1.000000  O     
 O5     1.0    0.481701    0.546533    0.666404 Biso 1.000000  O     
 O6     1.0    0.518299    0.546533    0.166404 Biso 1.000000  O     
 O7     1.0    0.981701    0.046533    0.166404 Biso 1.000000  O     
 O8     1.0    0.018299    0.046533    0.666404 Biso 1.000000  O     
 O9     1.0    0.168346    0.047111    0.984645 Biso 1.000000  O     
 O10    1.0    0.831654    0.047111    0.484645 Biso 1.000000  O     
 O11    1.0    0.668346    0.547111    0.484645 Biso 1.000000  O     
 O12    1.0    0.331654    0.547111    0.984645 Biso 1.000000  O     
 O13    1.0    0.027011    0.440883    0.838124 Biso 1.000000  O     
 O14    1.0    0.972989    0.440883    0.338124 Biso 1.000000  O     
 O15    1.0    0.527011    0.940883    0.338124 Biso 1.000000  O     
 O16    1.0    0.472989    0.940883    0.838124 Biso 1.000000  O     
 O17    1.0    0.333686    0.945201    0.513795 Biso 1.000000  O     
 O18    1.0    0.666314    0.945201    0.013795 Biso 1.000000  O     
 O19    1.0    0.833686    0.445201    0.013795 Biso 1.000000  O     
 O20    1.0    0.166314    0.445201    0.513795 Biso 1.000000  O     
 O21    1.0    0.361840    0.336583    0.754096 Biso 1.000000  O     
 O22    1.0    0.638160    0.336583    0.254096 Biso 1.000000  O     
 O23    1.0    0.861840    0.836583    0.254096 Biso 1.000000  O     
 O24    1.0    0.138160    0.836583    0.754096 Biso 1.000000  O     
 C1     1.0    0.219620    0.708794    0.383304 Biso 1.000000  C     
 C2     1.0    0.780380    0.708794    0.883304 Biso 1.000000  C     
 C3     1.0    0.719620    0.208794    0.883304 Biso 1.000000  C     
 C4     1.0    0.280380    0.208794    0.383304 Biso 1.000000  C     
 C5     1.0    0.288060    0.247016    0.748288 Biso 1.000000  C     
 C6     1.0    0.711940    0.247016    0.248288 Biso 1.000000  C     
 C7     1.0    0.788060    0.747016    0.248288 Biso 1.000000  C     
 C8     1.0    0.211940    0.747016    0.748288 Biso 1.000000  C     
 C9     1.0    0.026406    0.036388    0.029160 Biso 1.000000  C     
 C10    1.0    0.973594    0.036388    0.529160 Biso 1.000000  C     
 C11    1.0    0.526406    0.536388    0.529160 Biso 1.000000  C     
 C12    1.0    0.473594    0.536388    0.029160 Biso 1.000000  C     
 C13    1.0    0.470826    0.971468    0.468200 Biso 1.000000  C     
 C14    1.0    0.529174    0.971468    0.968200 Biso 1.000000  C     
 C15    1.0    0.970826    0.471468    0.968200 Biso 1.000000  C     
 C16    1.0    0.029174    0.471468    0.468200 Biso 1.000000  C     
 C17    1.0    0.259150    0.761162    0.125613 Biso 1.000000  C     
 C18    1.0    0.740850    0.761162    0.625613 Biso 1.000000  C     
 C19    1.0    0.759150    0.261162    0.625613 Biso 1.000000  C     
 C20    1.0    0.240850    0.261162    0.125613 Biso 1.000000  C     
 H1     1.0    0.348140    0.703509    0.401962 Biso 1.000000  H     
 H2     1.0    0.651860    0.703509    0.901962 Biso 1.000000  H     
 H3     1.0    0.848140    0.203509    0.901962 Biso 1.000000  H     
 H4     1.0    0.151860    0.203509    0.401962 Biso 1.000000  H     
 H5     1.0    0.157690    0.732774    0.490954 Biso 1.000000  H     
 H6     1.0    0.842310    0.732774    0.990954 Biso 1.000000  H     
 H7     1.0    0.657690    0.232774    0.990954 Biso 1.000000  H     
 H8     1.0    0.342310    0.232774    0.490954 Biso 1.000000  H     
 H9     1.0    0.175750    0.630355    0.331122 Biso 1.000000  H     
 H10    1.0    0.824250    0.630355    0.831122 Biso 1.000000  H     
 H11    1.0    0.675750    0.130355    0.831122 Biso 1.000000  H     
 H12    1.0    0.324250    0.130355    0.331122 Biso 1.000000  H     
 H13    1.0    0.155840    0.249688    0.748184 Biso 1.000000  H     
 H14    1.0    0.844160    0.249688    0.248184 Biso 1.000000  H     
 H15    1.0    0.655840    0.749688    0.248184 Biso 1.000000  H     
 H16    1.0    0.344160    0.749688    0.748184 Biso 1.000000  H     
 H17    1.0    0.435215    0.516785    0.441054 Biso 1.000000  H     
 H18    1.0    0.564785    0.516785    0.941054 Biso 1.000000  H     
 H19    1.0    0.935215    0.016785    0.941054 Biso 1.000000  H     
 H20    1.0    0.064785    0.016785    0.441054 Biso 1.000000  H     
 H21    1.0    0.043785    0.524215    0.048994 Biso 1.000000  H     
 H22    1.0    0.956215    0.524215    0.548994 Biso 1.000000  H     
 H23    1.0    0.543785    0.024215    0.548994 Biso 1.000000  H     
 H24    1.0    0.456215    0.024215    0.048994 Biso 1.000000  H     
 H25    1.0    0.238790    0.864076    0.330755 Biso 1.000000  H     
 H26    1.0    0.761210    0.864076    0.830755 Biso 1.000000  H     
 H27    1.0    0.738790    0.364076    0.830755 Biso 1.000000  H     
 H28    1.0    0.261210    0.364076    0.330755 Biso 1.000000  H     
 H29    1.0    0.065400    0.801106    0.266569 Biso 1.000000  H     
 H30    1.0    0.934600    0.801106    0.766569 Biso 1.000000  H     
 H31    1.0    0.565400    0.301106    0.766569 Biso 1.000000  H     
 H32    1.0    0.434600    0.301106    0.266569 Biso 1.000000  H     
 H33    1.0    0.229330    0.823705    0.054770 Biso 1.000000  H     
 H34    1.0    0.770670    0.823705    0.554770 Biso 1.000000  H     
 H35    1.0    0.729330    0.323705    0.554770 Biso 1.000000  H     
 H36    1.0    0.270670    0.323705    0.054770 Biso 1.000000  H     
 H37    1.0    0.388700    0.755842    0.136279 Biso 1.000000  H     
 H38    1.0    0.611300    0.755842    0.636279 Biso 1.000000  H     
 H39    1.0    0.888700    0.255842    0.636279 Biso 1.000000  H     
 H40    1.0    0.111300    0.255842    0.136279 Biso 1.000000  H     
 H41    1.0    0.211140    0.682912    0.076865 Biso 1.000000  H     
 H42    1.0    0.788860    0.682912    0.576865 Biso 1.000000  H     
 H43    1.0    0.711140    0.182912    0.576865 Biso 1.000000  H     
 H44    1.0    0.288860    0.182912    0.076865 Biso 1.000000  H     
 N1     1.0    0.189250    0.790669    0.279435 Biso 1.000000  N     
 N2     1.0    0.810750    0.790669    0.779435 Biso 1.000000  N     
 N3     1.0    0.689250    0.290669    0.779435 Biso 1.000000  N     
 N4     1.0    0.310750    0.290669    0.279435 Biso 1.000000  N     
