_cell_length_a                         8.390532
_cell_length_b                         12.508689
_cell_length_c                         8.858274
_cell_angle_alpha                      97.491516
_cell_angle_beta                       90.000000
_cell_angle_gamma                      90.000000
_space_group_IT_number                 1
 loop_
 _space_group_symop_operation_xyz 
 'x, y, z' 
 loop_ 
 _atom_site_label 
 _atom_site_occupancy 
 _atom_site_fract_x 
 _atom_site_fract_y
 _atom_site_fract_z
 _atom_site_adp_type
 _atom_site_U_iso_or_equiv
 _atom_site_type_symbol
 Mn1    1.0    0.251328    1.001016    0.749980 Biso 1.000000  Mn    
 Mn2    1.0    0.748672    1.001016    0.249980 Biso 1.000000  Mn    
 Mn3    1.0    0.751328    0.501016    0.249980 Biso 1.000000  Mn    
 Mn4    1.0    0.248672    0.501016    0.749980 Biso 1.000000  Mn    
 O1     1.0    0.360600    0.161771    0.745112 Biso 1.000000  O     
 O2     1.0    0.639400    0.161771    0.245112 Biso 1.000000  O     
 O3     1.0    0.860600    0.661771    0.245112 Biso 1.000000  O     
 O4     1.0    0.139400    0.661771    0.745112 Biso 1.000000  O     
 O5     1.0    0.475167    0.555971    0.663008 Biso 1.000000  O     
 O6     1.0    0.524833    0.555971    0.163008 Biso 1.000000  O     
 O7     1.0    0.975167    0.055971    0.163008 Biso 1.000000  O     
 O8     1.0    0.024833    0.055971    0.663008 Biso 1.000000  O     
 O9     1.0    0.166822    0.052877    0.985815 Biso 1.000000  O     
 O10    1.0    0.833178    0.052877    0.485815 Biso 1.000000  O     
 O11    1.0    0.666822    0.552877    0.485815 Biso 1.000000  O     
 O12    1.0    0.333178    0.552877    0.985815 Biso 1.000000  O     
 O13    1.0    0.020477    0.450321    0.834728 Biso 1.000000  O     
 O14    1.0    0.979523    0.450321    0.334728 Biso 1.000000  O     
 O15    1.0    0.520477    0.950321    0.334728 Biso 1.000000  O     
 O16    1.0    0.479523    0.950321    0.834728 Biso 1.000000  O     
 O17    1.0    0.332162    0.950967    0.514965 Biso 1.000000  O     
 O18    1.0    0.667838    0.950967    0.014965 Biso 1.000000  O     
 O19    1.0    0.832162    0.450967    0.014965 Biso 1.000000  O     
 O20    1.0    0.167838    0.450967    0.514965 Biso 1.000000  O     
 O21    1.0    0.358120    0.341521    0.756472 Biso 1.000000  O     
 O22    1.0    0.641880    0.341521    0.256472 Biso 1.000000  O     
 O23    1.0    0.858120    0.841521    0.256472 Biso 1.000000  O     
 O24    1.0    0.141880    0.841521    0.756472 Biso 1.000000  O     
 C1     1.0    0.219620    0.836195    0.325665 Biso 1.000000  C     
 C2     1.0    0.780380    0.836195    0.825665 Biso 1.000000  C     
 C3     1.0    0.719620    0.336195    0.825665 Biso 1.000000  C     
 C4     1.0    0.280380    0.336195    0.325665 Biso 1.000000  C     
 C5     1.0    0.288060    0.251492    0.750856 Biso 1.000000  C     
 C6     1.0    0.711940    0.251492    0.250856 Biso 1.000000  C     
 C7     1.0    0.788060    0.751492    0.250856 Biso 1.000000  C     
 C8     1.0    0.211940    0.751492    0.750856 Biso 1.000000  C     
 C9     1.0    0.028482    0.030496    0.031140 Biso 1.000000  C     
 C10    1.0    0.971518    0.030496    0.531140 Biso 1.000000  C     
 C11    1.0    0.528482    0.530496    0.531140 Biso 1.000000  C     
 C12    1.0    0.471518    0.530496    0.031140 Biso 1.000000  C     
 C13    1.0    0.472902    0.965576    0.470180 Biso 1.000000  C     
 C14    1.0    0.527098    0.965576    0.970180 Biso 1.000000  C     
 C15    1.0    0.972902    0.465576    0.970180 Biso 1.000000  C     
 C16    1.0    0.027098    0.465576    0.470180 Biso 1.000000  C     
 C17    1.0    0.259150    0.638412    0.302134 Biso 1.000000  C     
 C18    1.0    0.740850    0.638412    0.802134 Biso 1.000000  C     
 C19    1.0    0.759150    0.138412    0.802134 Biso 1.000000  C     
 C20    1.0    0.240850    0.138412    0.302134 Biso 1.000000  C     
 H1     1.0    0.348140    0.851164    0.329392 Biso 1.000000  H     
 H2     1.0    0.651860    0.851164    0.829392 Biso 1.000000  H     
 H3     1.0    0.848140    0.351164    0.829392 Biso 1.000000  H     
 H4     1.0    0.151860    0.351164    0.329392 Biso 1.000000  H     
 H5     1.0    0.157690    0.898913    0.273381 Biso 1.000000  H     
 H6     1.0    0.842310    0.898913    0.773381 Biso 1.000000  H     
 H7     1.0    0.657690    0.398913    0.773381 Biso 1.000000  H     
 H8     1.0    0.342310    0.398913    0.273381 Biso 1.000000  H     
 H9     1.0    0.175750    0.834797    0.441513 Biso 1.000000  H     
 H10    1.0    0.824250    0.834797    0.941513 Biso 1.000000  H     
 H11    1.0    0.675750    0.334797    0.941513 Biso 1.000000  H     
 H12    1.0    0.324250    0.334797    0.441513 Biso 1.000000  H     
 H13    1.0    0.155840    0.250156    0.750908 Biso 1.000000  H     
 H14    1.0    0.844160    0.250156    0.250908 Biso 1.000000  H     
 H15    1.0    0.655840    0.750156    0.250908 Biso 1.000000  H     
 H16    1.0    0.344160    0.750156    0.750908 Biso 1.000000  H     
 H17    1.0    0.450965    0.486035    0.448518 Biso 1.000000  H     
 H18    1.0    0.549035    0.486035    0.948518 Biso 1.000000  H     
 H19    1.0    0.950965   -0.013965    0.948518 Biso 1.000000  H     
 H20    1.0    0.049035   -0.013965    0.448518 Biso 1.000000  H     
 H21    1.0    0.059535    0.493465    0.056458 Biso 1.000000  H     
 H22    1.0    0.940465    0.493465    0.556458 Biso 1.000000  H     
 H23    1.0    0.559535   -0.006535    0.556458 Biso 1.000000  H     
 H24    1.0    0.440465   -0.006535    0.056458 Biso 1.000000  H     
 H25    1.0    0.238790    0.733093    0.124996 Biso 1.000000  H     
 H26    1.0    0.761210    0.733093    0.624996 Biso 1.000000  H     
 H27    1.0    0.738790    0.233093    0.624996 Biso 1.000000  H     
 H28    1.0    0.261210    0.233093    0.124996 Biso 1.000000  H     
 H29    1.0    0.065400    0.716826    0.222099 Biso 1.000000  H     
 H30    1.0    0.934600    0.716826    0.722099 Biso 1.000000  H     
 H31    1.0    0.565400    0.216826    0.722099 Biso 1.000000  H     
 H32    1.0    0.434600    0.216826    0.222099 Biso 1.000000  H     
 H33    1.0    0.229330    0.563139    0.230448 Biso 1.000000  H     
 H34    1.0    0.770670    0.563139    0.730448 Biso 1.000000  H     
 H35    1.0    0.729330    0.063139    0.730448 Biso 1.000000  H     
 H36    1.0    0.270670    0.063139    0.230448 Biso 1.000000  H     
 H37    1.0    0.388700    0.647967    0.307377 Biso 1.000000  H     
 H38    1.0    0.611300    0.647967    0.807377 Biso 1.000000  H     
 H39    1.0    0.888700    0.147967    0.807377 Biso 1.000000  H     
 H40    1.0    0.111300    0.147967    0.307377 Biso 1.000000  H     
 H41    1.0    0.211140    0.639264    0.417093 Biso 1.000000  H     
 H42    1.0    0.788860    0.639264    0.917093 Biso 1.000000  H     
 H43    1.0    0.711140    0.139264    0.917093 Biso 1.000000  H     
 H44    1.0    0.288860    0.139264    0.417093 Biso 1.000000  H     
 N1     1.0    0.189250    0.730096    0.233869 Biso 1.000000  N     
 N2     1.0    0.810750    0.730096    0.733869 Biso 1.000000  N     
 N3     1.0    0.689250    0.230096    0.733869 Biso 1.000000  N     
 N4     1.0    0.310750    0.230096    0.233869 Biso 1.000000  N     
