_cell_length_a                         8.390532
_cell_length_b                         12.508689
_cell_length_c                         8.858274
_cell_angle_alpha                      97.491516
_cell_angle_beta                       90.000000
_cell_angle_gamma                      90.000000
_space_group_IT_number                 1
 loop_
 _space_group_symop_operation_xyz 
 'x, y, z' 
 loop_ 
 _atom_site_label 
 _atom_site_occupancy 
 _atom_site_fract_x 
 _atom_site_fract_y
 _atom_site_fract_z
 _atom_site_adp_type
 _atom_site_U_iso_or_equiv
 _atom_site_type_symbol
 Mn1    1.0    0.252656    1.002032    0.749960 Biso 1.000000  Mn    
 Mn2    1.0    0.747344    1.002032    0.249960 Biso 1.000000  Mn    
 Mn3    1.0    0.752656    0.502032    0.249960 Biso 1.000000  Mn    
 Mn4    1.0    0.247344    0.502032    0.749960 Biso 1.000000  Mn    
 O1     1.0    0.361840    0.163417    0.745904 Biso 1.000000  O     
 O2     1.0    0.638160    0.163417    0.245904 Biso 1.000000  O     
 O3     1.0    0.861840    0.663417    0.245904 Biso 1.000000  O     
 O4     1.0    0.138160    0.663417    0.745904 Biso 1.000000  O     
 O5     1.0    0.472989    0.559117    0.661876 Biso 1.000000  O     
 O6     1.0    0.527011    0.559117    0.161876 Biso 1.000000  O     
 O7     1.0    0.972989    0.059117    0.161876 Biso 1.000000  O     
 O8     1.0    0.027011    0.059117    0.661876 Biso 1.000000  O     
 O9     1.0    0.166314    0.054799    0.986205 Biso 1.000000  O     
 O10    1.0    0.833686    0.054799    0.486205 Biso 1.000000  O     
 O11    1.0    0.666314    0.554799    0.486205 Biso 1.000000  O     
 O12    1.0    0.333686    0.554799    0.986205 Biso 1.000000  O     
 O13    1.0    0.018299    0.453467    0.833596 Biso 1.000000  O     
 O14    1.0    0.981701    0.453467    0.333596 Biso 1.000000  O     
 O15    1.0    0.518299    0.953467    0.333596 Biso 1.000000  O     
 O16    1.0    0.481701    0.953467    0.833596 Biso 1.000000  O     
 O17    1.0    0.331654    0.952889    0.515355 Biso 1.000000  O     
 O18    1.0    0.668346    0.952889    0.015355 Biso 1.000000  O     
 O19    1.0    0.831654    0.452889    0.015355 Biso 1.000000  O     
 O20    1.0    0.168346    0.452889    0.515355 Biso 1.000000  O     
 O21    1.0    0.356880    0.343167    0.757264 Biso 1.000000  O     
 O22    1.0    0.643120    0.343167    0.257264 Biso 1.000000  O     
 O23    1.0    0.856880    0.843167    0.257264 Biso 1.000000  O     
 O24    1.0    0.143120    0.843167    0.757264 Biso 1.000000  O     
 C1     1.0    0.219620    0.825856    0.212267 Biso 1.000000  C     
 C2     1.0    0.780380    0.825856    0.712267 Biso 1.000000  C     
 C3     1.0    0.719620    0.325856    0.712267 Biso 1.000000  C     
 C4     1.0    0.280380    0.325856    0.212267 Biso 1.000000  C     
 C5     1.0    0.288060    0.252984    0.751712 Biso 1.000000  C     
 C6     1.0    0.711940    0.252984    0.251712 Biso 1.000000  C     
 C7     1.0    0.788060    0.752984    0.251712 Biso 1.000000  C     
 C8     1.0    0.211940    0.752984    0.751712 Biso 1.000000  C     
 C9     1.0    0.029174    0.028532    0.031800 Biso 1.000000  C     
 C10    1.0    0.970826    0.028532    0.531800 Biso 1.000000  C     
 C11    1.0    0.529174    0.528532    0.531800 Biso 1.000000  C     
 C12    1.0    0.470826    0.528532    0.031800 Biso 1.000000  C     
 C13    1.0    0.473594    0.963612    0.470840 Biso 1.000000  C     
 C14    1.0    0.526406    0.963612    0.970840 Biso 1.000000  C     
 C15    1.0    0.973594    0.463612    0.970840 Biso 1.000000  C     
 C16    1.0    0.026406    0.463612    0.470840 Biso 1.000000  C     
 C17    1.0    0.259150    0.671255    0.356987 Biso 1.000000  C     
 C18    1.0    0.740850    0.671255    0.856987 Biso 1.000000  C     
 C19    1.0    0.759150    0.171255    0.856987 Biso 1.000000  C     
 C20    1.0    0.240850    0.171255    0.356987 Biso 1.000000  C     
 H1     1.0    0.348140    0.838374    0.203040 Biso 1.000000  H     
 H2     1.0    0.651860    0.838374    0.703040 Biso 1.000000  H     
 H3     1.0    0.848140    0.338374    0.703040 Biso 1.000000  H     
 H4     1.0    0.151860    0.338374    0.203040 Biso 1.000000  H     
 H5     1.0    0.157690    0.849798    0.113423 Biso 1.000000  H     
 H6     1.0    0.842310    0.849798    0.613423 Biso 1.000000  H     
 H7     1.0    0.657690    0.349798    0.613423 Biso 1.000000  H     
 H8     1.0    0.342310    0.349798    0.113423 Biso 1.000000  H     
 H9     1.0    0.175750    0.873470    0.316116 Biso 1.000000  H     
 H10    1.0    0.824250    0.873470    0.816116 Biso 1.000000  H     
 H11    1.0    0.675750    0.373470    0.816116 Biso 1.000000  H     
 H12    1.0    0.324250    0.373470    0.316116 Biso 1.000000  H     
 H13    1.0    0.155840    0.250312    0.751816 Biso 1.000000  H     
 H14    1.0    0.844160    0.250312    0.251816 Biso 1.000000  H     
 H15    1.0    0.655840    0.750312    0.251816 Biso 1.000000  H     
 H16    1.0    0.344160    0.750312    0.751816 Biso 1.000000  H     
 H17    1.0    0.456215    0.475785    0.451006 Biso 1.000000  H     
 H18    1.0    0.543785    0.475785    0.951006 Biso 1.000000  H     
 H19    1.0    0.956215   -0.024215    0.951006 Biso 1.000000  H     
 H20    1.0    0.043785   -0.024215    0.451006 Biso 1.000000  H     
 H21    1.0    0.064785    0.483215    0.058946 Biso 1.000000  H     
 H22    1.0    0.935215    0.483215    0.558946 Biso 1.000000  H     
 H23    1.0    0.564785   -0.016785    0.558946 Biso 1.000000  H     
 H24    1.0    0.435215   -0.016785    0.058946 Biso 1.000000  H     
 H25    1.0    0.238790    0.666167    0.120725 Biso 1.000000  H     
 H26    1.0    0.761210    0.666167    0.620725 Biso 1.000000  H     
 H27    1.0    0.738790    0.166167    0.620725 Biso 1.000000  H     
 H28    1.0    0.261210    0.166167    0.120725 Biso 1.000000  H     
 H29    1.0    0.065400    0.695030    0.220406 Biso 1.000000  H     
 H30    1.0    0.934600    0.695030    0.720406 Biso 1.000000  H     
 H31    1.0    0.565400    0.195030    0.720406 Biso 1.000000  H     
 H32    1.0    0.434600    0.195030    0.220406 Biso 1.000000  H     
 H33    1.0    0.229330    0.586080    0.356466 Biso 1.000000  H     
 H34    1.0    0.770670    0.586080    0.856466 Biso 1.000000  H     
 H35    1.0    0.729330    0.086080    0.856466 Biso 1.000000  H     
 H36    1.0    0.270670    0.086080    0.356466 Biso 1.000000  H     
 H37    1.0    0.388700    0.680448    0.353635 Biso 1.000000  H     
 H38    1.0    0.611300    0.680448    0.853635 Biso 1.000000  H     
 H39    1.0    0.888700    0.180448    0.853635 Biso 1.000000  H     
 H40    1.0    0.111300    0.180448    0.353635 Biso 1.000000  H     
 H41    1.0    0.211140    0.720142    0.458164 Biso 1.000000  H     
 H42    1.0    0.788860    0.720142    0.958164 Biso 1.000000  H     
 H43    1.0    0.711140    0.220142    0.958164 Biso 1.000000  H     
 H44    1.0    0.288860    0.220142    0.458164 Biso 1.000000  H     
 N1     1.0    0.189250    0.709682    0.219729 Biso 1.000000  N     
 N2     1.0    0.810750    0.709682    0.719729 Biso 1.000000  N     
 N3     1.0    0.689250    0.209682    0.719729 Biso 1.000000  N     
 N4     1.0    0.310750    0.209682    0.219729 Biso 1.000000  N     
