_cell_length_a                         8.390532
_cell_length_b                         12.508689
_cell_length_c                         8.858274
_cell_angle_alpha                      97.491516
_cell_angle_beta                       90.000000
_cell_angle_gamma                      90.000000
_space_group_IT_number                 1
 loop_
 _space_group_symop_operation_xyz 
 'x, y, z' 
 loop_ 
 _atom_site_label 
 _atom_site_occupancy 
 _atom_site_fract_x 
 _atom_site_fract_y
 _atom_site_fract_z
 _atom_site_adp_type
 _atom_site_U_iso_or_equiv
 _atom_site_type_symbol
 Mn1    1.0    0.250000    1.000000    0.750000 Biso 1.000000  Mn    
 Mn2    1.0    0.750000    1.000000    0.250000 Biso 1.000000  Mn    
 Mn3    1.0    0.750000    0.500000    0.250000 Biso 1.000000  Mn    
 Mn4    1.0    0.250000    0.500000    0.750000 Biso 1.000000  Mn    
 O1     1.0    0.359360    0.160125    0.744320 Biso 1.000000  O     
 O2     1.0    0.640640    0.160125    0.244320 Biso 1.000000  O     
 O3     1.0    0.859360    0.660125    0.244320 Biso 1.000000  O     
 O4     1.0    0.140640    0.660125    0.744320 Biso 1.000000  O     
 O5     1.0    0.477345    0.552825    0.664140 Biso 1.000000  O     
 O6     1.0    0.522655    0.552825    0.164140 Biso 1.000000  O     
 O7     1.0    0.977345    0.052825    0.164140 Biso 1.000000  O     
 O8     1.0    0.022655    0.052825    0.664140 Biso 1.000000  O     
 O9     1.0    0.167330    0.050955    0.985425 Biso 1.000000  O     
 O10    1.0    0.832670    0.050955    0.485425 Biso 1.000000  O     
 O11    1.0    0.667330    0.550955    0.485425 Biso 1.000000  O     
 O12    1.0    0.332670    0.550955    0.985425 Biso 1.000000  O     
 O13    1.0    0.022655    0.447175    0.835860 Biso 1.000000  O     
 O14    1.0    0.977345    0.447175    0.335860 Biso 1.000000  O     
 O15    1.0    0.522655    0.947175    0.335860 Biso 1.000000  O     
 O16    1.0    0.477345    0.947175    0.835860 Biso 1.000000  O     
 O17    1.0    0.332670    0.949045    0.514575 Biso 1.000000  O     
 O18    1.0    0.667330    0.949045    0.014575 Biso 1.000000  O     
 O19    1.0    0.832670    0.449045    0.014575 Biso 1.000000  O     
 O20    1.0    0.167330    0.449045    0.514575 Biso 1.000000  O     
 O21    1.0    0.359360    0.339875    0.755680 Biso 1.000000  O     
 O22    1.0    0.640640    0.339875    0.255680 Biso 1.000000  O     
 O23    1.0    0.859360    0.839875    0.255680 Biso 1.000000  O     
 O24    1.0    0.140640    0.839875    0.755680 Biso 1.000000  O     
 C1     1.0    0.219620    0.806066    0.404638 Biso 1.000000  C     
 C2     1.0    0.780380    0.806066    0.904638 Biso 1.000000  C     
 C3     1.0    0.719620    0.306066    0.904638 Biso 1.000000  C     
 C4     1.0    0.280380    0.306066    0.404638 Biso 1.000000  C     
 C5     1.0    0.288060    0.250000    0.750000 Biso 1.000000  C     
 C6     1.0    0.711940    0.250000    0.250000 Biso 1.000000  C     
 C7     1.0    0.788060    0.750000    0.250000 Biso 1.000000  C     
 C8     1.0    0.211940    0.750000    0.750000 Biso 1.000000  C     
 C9     1.0    0.027790    0.032460    0.030480 Biso 1.000000  C     
 C10    1.0    0.972210    0.032460    0.530480 Biso 1.000000  C     
 C11    1.0    0.527790    0.532460    0.530480 Biso 1.000000  C     
 C12    1.0    0.472210    0.532460    0.030480 Biso 1.000000  C     
 C13    1.0    0.472210    0.967540    0.469520 Biso 1.000000  C     
 C14    1.0    0.527790    0.967540    0.969520 Biso 1.000000  C     
 C15    1.0    0.972210    0.467540    0.969520 Biso 1.000000  C     
 C16    1.0    0.027790    0.467540    0.469520 Biso 1.000000  C     
 C17    1.0    0.259150    0.640647    0.221845 Biso 1.000000  C     
 C18    1.0    0.740850    0.640647    0.721845 Biso 1.000000  C     
 C19    1.0    0.759150    0.140647    0.721845 Biso 1.000000  C     
 C20    1.0    0.240850    0.140647    0.221845 Biso 1.000000  C     
 H1     1.0    0.348140    0.817768    0.419897 Biso 1.000000  H     
 H2     1.0    0.651860    0.817768    0.919897 Biso 1.000000  H     
 H3     1.0    0.848140    0.317768    0.919897 Biso 1.000000  H     
 H4     1.0    0.151860    0.317768    0.419897 Biso 1.000000  H     
 H5     1.0    0.157690    0.883604    0.418885 Biso 1.000000  H     
 H6     1.0    0.842310    0.883604    0.918885 Biso 1.000000  H     
 H7     1.0    0.657690    0.383604    0.918885 Biso 1.000000  H     
 H8     1.0    0.342310    0.383604    0.418885 Biso 1.000000  H     
 H9     1.0    0.175750    0.756189    0.488236 Biso 1.000000  H     
 H10    1.0    0.824250    0.756189    0.988236 Biso 1.000000  H     
 H11    1.0    0.675750    0.256189    0.988236 Biso 1.000000  H     
 H12    1.0    0.324250    0.256189    0.488236 Biso 1.000000  H     
 H13    1.0    0.155840    0.250000    0.750000 Biso 1.000000  H     
 H14    1.0    0.844160    0.250000    0.250000 Biso 1.000000  H     
 H15    1.0    0.655840    0.750000    0.250000 Biso 1.000000  H     
 H16    1.0    0.344160    0.750000    0.750000 Biso 1.000000  H     
 H17    1.0    0.445715    0.496285    0.446030 Biso 1.000000  H     
 H18    1.0    0.554285    0.496285    0.946030 Biso 1.000000  H     
 H19    1.0    0.945715   -0.003715    0.946030 Biso 1.000000  H     
 H20    1.0    0.054285   -0.003715    0.446030 Biso 1.000000  H     
 H21    1.0    0.054285    0.503715    0.053970 Biso 1.000000  H     
 H22    1.0    0.945715    0.503715    0.553970 Biso 1.000000  H     
 H23    1.0    0.554285    0.003715    0.553970 Biso 1.000000  H     
 H24    1.0    0.445715    0.003715    0.053970 Biso 1.000000  H     
 H25    1.0    0.238790    0.798933    0.171493 Biso 1.000000  H     
 H26    1.0    0.761210    0.798933    0.671493 Biso 1.000000  H     
 H27    1.0    0.738790    0.298933    0.671493 Biso 1.000000  H     
 H28    1.0    0.261210    0.298933    0.171493 Biso 1.000000  H     
 H29    1.0    0.065400    0.743748    0.228926 Biso 1.000000  H     
 H30    1.0    0.934600    0.743748    0.728926 Biso 1.000000  H     
 H31    1.0    0.565400    0.243748    0.728926 Biso 1.000000  H     
 H32    1.0    0.434600    0.243748    0.228926 Biso 1.000000  H     
 H33    1.0    0.229330    0.604028    0.106376 Biso 1.000000  H     
 H34    1.0    0.770670    0.604028    0.606376 Biso 1.000000  H     
 H35    1.0    0.729330    0.104028    0.606376 Biso 1.000000  H     
 H36    1.0    0.270670    0.104028    0.106376 Biso 1.000000  H     
 H37    1.0    0.388700    0.646914    0.233681 Biso 1.000000  H     
 H38    1.0    0.611300    0.646914    0.733681 Biso 1.000000  H     
 H39    1.0    0.888700    0.146914    0.733681 Biso 1.000000  H     
 H40    1.0    0.111300    0.146914    0.233681 Biso 1.000000  H     
 H41    1.0    0.211140    0.593138    0.306677 Biso 1.000000  H     
 H42    1.0    0.788860    0.593138    0.806677 Biso 1.000000  H     
 H43    1.0    0.711140    0.093138    0.806677 Biso 1.000000  H     
 H44    1.0    0.288860    0.093138    0.306677 Biso 1.000000  H     
 N1     1.0    0.189250    0.750568    0.248649 Biso 1.000000  N     
 N2     1.0    0.810750    0.750568    0.748649 Biso 1.000000  N     
 N3     1.0    0.689250    0.250568    0.748649 Biso 1.000000  N     
 N4     1.0    0.310750    0.250568    0.248649 Biso 1.000000  N     
