_cell_length_a                         8.390532
_cell_length_b                         12.508689
_cell_length_c                         8.858274
_cell_angle_alpha                      97.491516
_cell_angle_beta                       90.000000
_cell_angle_gamma                      90.000000
_space_group_IT_number                 1
 loop_
 _space_group_symop_operation_xyz 
 'x, y, z' 
 loop_ 
 _atom_site_label 
 _atom_site_occupancy 
 _atom_site_fract_x 
 _atom_site_fract_y
 _atom_site_fract_z
 _atom_site_adp_type
 _atom_site_U_iso_or_equiv
 _atom_site_type_symbol
 Mn1    1.0    0.251992    1.001524    0.749970 Biso 1.000000  Mn    
 Mn2    1.0    0.748008    1.001524    0.249970 Biso 1.000000  Mn    
 Mn3    1.0    0.751992    0.501524    0.249970 Biso 1.000000  Mn    
 Mn4    1.0    0.248008    0.501524    0.749970 Biso 1.000000  Mn    
 O1     1.0    0.361220    0.162594    0.745508 Biso 1.000000  O     
 O2     1.0    0.638780    0.162594    0.245508 Biso 1.000000  O     
 O3     1.0    0.861220    0.662594    0.245508 Biso 1.000000  O     
 O4     1.0    0.138780    0.662594    0.745508 Biso 1.000000  O     
 O5     1.0    0.474078    0.557544    0.662442 Biso 1.000000  O     
 O6     1.0    0.525922    0.557544    0.162442 Biso 1.000000  O     
 O7     1.0    0.974078    0.057544    0.162442 Biso 1.000000  O     
 O8     1.0    0.025922    0.057544    0.662442 Biso 1.000000  O     
 O9     1.0    0.166568    0.053838    0.986010 Biso 1.000000  O     
 O10    1.0    0.833432    0.053838    0.486010 Biso 1.000000  O     
 O11    1.0    0.666568    0.553838    0.486010 Biso 1.000000  O     
 O12    1.0    0.333432    0.553838    0.986010 Biso 1.000000  O     
 O13    1.0    0.019388    0.451894    0.834162 Biso 1.000000  O     
 O14    1.0    0.980612    0.451894    0.334162 Biso 1.000000  O     
 O15    1.0    0.519388    0.951894    0.334162 Biso 1.000000  O     
 O16    1.0    0.480612    0.951894    0.834162 Biso 1.000000  O     
 O17    1.0    0.331908    0.951928    0.515160 Biso 1.000000  O     
 O18    1.0    0.668092    0.951928    0.015160 Biso 1.000000  O     
 O19    1.0    0.831908    0.451928    0.015160 Biso 1.000000  O     
 O20    1.0    0.168092    0.451928    0.515160 Biso 1.000000  O     
 O21    1.0    0.357500    0.342344    0.756868 Biso 1.000000  O     
 O22    1.0    0.642500    0.342344    0.256868 Biso 1.000000  O     
 O23    1.0    0.857500    0.842344    0.256868 Biso 1.000000  O     
 O24    1.0    0.142500    0.842344    0.756868 Biso 1.000000  O     
 C1     1.0    0.219620    0.836720    0.271058 Biso 1.000000  C     
 C2     1.0    0.780380    0.836720    0.771058 Biso 1.000000  C     
 C3     1.0    0.719620    0.336720    0.771058 Biso 1.000000  C     
 C4     1.0    0.280380    0.336720    0.271058 Biso 1.000000  C     
 C5     1.0    0.288060    0.252238    0.751284 Biso 1.000000  C     
 C6     1.0    0.711940    0.252238    0.251284 Biso 1.000000  C     
 C7     1.0    0.788060    0.752238    0.251284 Biso 1.000000  C     
 C8     1.0    0.211940    0.752238    0.751284 Biso 1.000000  C     
 C9     1.0    0.028828    0.029514    0.031470 Biso 1.000000  C     
 C10    1.0    0.971172    0.029514    0.531470 Biso 1.000000  C     
 C11    1.0    0.528828    0.529514    0.531470 Biso 1.000000  C     
 C12    1.0    0.471172    0.529514    0.031470 Biso 1.000000  C     
 C13    1.0    0.473248    0.964594    0.470510 Biso 1.000000  C     
 C14    1.0    0.526752    0.964594    0.970510 Biso 1.000000  C     
 C15    1.0    0.973248    0.464594    0.970510 Biso 1.000000  C     
 C16    1.0    0.026752    0.464594    0.470510 Biso 1.000000  C     
 C17    1.0    0.259150    0.651460    0.334771 Biso 1.000000  C     
 C18    1.0    0.740850    0.651460    0.834771 Biso 1.000000  C     
 C19    1.0    0.759150    0.151460    0.834771 Biso 1.000000  C     
 C20    1.0    0.240850    0.151460    0.334771 Biso 1.000000  C     
 H1     1.0    0.348140    0.851171    0.268167 Biso 1.000000  H     
 H2     1.0    0.651860    0.851171    0.768167 Biso 1.000000  H     
 H3     1.0    0.848140    0.351171    0.768167 Biso 1.000000  H     
 H4     1.0    0.151860    0.351171    0.268167 Biso 1.000000  H     
 H5     1.0    0.157690    0.882280    0.191606 Biso 1.000000  H     
 H6     1.0    0.842310    0.882280    0.691606 Biso 1.000000  H     
 H7     1.0    0.657690    0.382280    0.691606 Biso 1.000000  H     
 H8     1.0    0.342310    0.382280    0.191606 Biso 1.000000  H     
 H9     1.0    0.175750    0.861017    0.386559 Biso 1.000000  H     
 H10    1.0    0.824250    0.861017    0.886559 Biso 1.000000  H     
 H11    1.0    0.675750    0.361017    0.886559 Biso 1.000000  H     
 H12    1.0    0.324250    0.361017    0.386559 Biso 1.000000  H     
 H13    1.0    0.155840    0.250234    0.751362 Biso 1.000000  H     
 H14    1.0    0.844160    0.250234    0.251362 Biso 1.000000  H     
 H15    1.0    0.655840    0.750234    0.251362 Biso 1.000000  H     
 H16    1.0    0.344160    0.750234    0.751362 Biso 1.000000  H     
 H17    1.0    0.453590    0.480910    0.449762 Biso 1.000000  H     
 H18    1.0    0.546410    0.480910    0.949762 Biso 1.000000  H     
 H19    1.0    0.953590   -0.019090    0.949762 Biso 1.000000  H     
 H20    1.0    0.046410   -0.019090    0.449762 Biso 1.000000  H     
 H21    1.0    0.062160    0.488340    0.057702 Biso 1.000000  H     
 H22    1.0    0.937840    0.488340    0.557702 Biso 1.000000  H     
 H23    1.0    0.562160   -0.011660    0.557702 Biso 1.000000  H     
 H24    1.0    0.437840   -0.011660    0.057702 Biso 1.000000  H     
 H25    1.0    0.238790    0.698562    0.117434 Biso 1.000000  H     
 H26    1.0    0.761210    0.698562    0.617434 Biso 1.000000  H     
 H27    1.0    0.738790    0.198562    0.617434 Biso 1.000000  H     
 H28    1.0    0.261210    0.198562    0.117434 Biso 1.000000  H     
 H29    1.0    0.065400    0.705185    0.220889 Biso 1.000000  H     
 H30    1.0    0.934600    0.705185    0.720889 Biso 1.000000  H     
 H31    1.0    0.565400    0.205185    0.720889 Biso 1.000000  H     
 H32    1.0    0.434600    0.205185    0.220889 Biso 1.000000  H     
 H33    1.0    0.229330    0.567108    0.296809 Biso 1.000000  H     
 H34    1.0    0.770670    0.567108    0.796809 Biso 1.000000  H     
 H35    1.0    0.729330    0.067108    0.796809 Biso 1.000000  H     
 H36    1.0    0.270670    0.067108    0.296809 Biso 1.000000  H     
 H37    1.0    0.388700    0.661317    0.335765 Biso 1.000000  H     
 H38    1.0    0.611300    0.661317    0.835765 Biso 1.000000  H     
 H39    1.0    0.888700    0.161317    0.835765 Biso 1.000000  H     
 H40    1.0    0.111300    0.161317    0.335765 Biso 1.000000  H     
 H41    1.0    0.211140    0.677610    0.448400 Biso 1.000000  H     
 H42    1.0    0.788860    0.677610    0.948400 Biso 1.000000  H     
 H43    1.0    0.711140    0.177610    0.948400 Biso 1.000000  H     
 H44    1.0    0.288860    0.177610    0.448400 Biso 1.000000  H     
 N1     1.0    0.189250    0.719864    0.226721 Biso 1.000000  N     
 N2     1.0    0.810750    0.719864    0.726721 Biso 1.000000  N     
 N3     1.0    0.689250    0.219864    0.726721 Biso 1.000000  N     
 N4     1.0    0.310750    0.219864    0.226721 Biso 1.000000  N     
