_cell_length_a                         8.390532
_cell_length_b                         12.508689
_cell_length_c                         8.858274
_cell_angle_alpha                      97.491516
_cell_angle_beta                       90.000000
_cell_angle_gamma                      90.000000
_space_group_IT_number                 1
 loop_
 _space_group_symop_operation_xyz 
 'x, y, z' 
 loop_ 
 _atom_site_label 
 _atom_site_occupancy 
 _atom_site_fract_x 
 _atom_site_fract_y
 _atom_site_fract_z
 _atom_site_adp_type
 _atom_site_U_iso_or_equiv
 _atom_site_type_symbol
 Mn1    1.0    0.246680    0.997460    0.750050 Biso 1.000000  Mn    
 Mn2    1.0    0.753320    0.997460    0.250050 Biso 1.000000  Mn    
 Mn3    1.0    0.746680    0.497460    0.250050 Biso 1.000000  Mn    
 Mn4    1.0    0.253320    0.497460    0.750050 Biso 1.000000  Mn    
 O1     1.0    0.356260    0.156010    0.742340 Biso 1.000000  O     
 O2     1.0    0.643740    0.156010    0.242340 Biso 1.000000  O     
 O3     1.0    0.856260    0.656010    0.242340 Biso 1.000000  O     
 O4     1.0    0.143740    0.656010    0.742340 Biso 1.000000  O     
 O5     1.0    0.482790    0.544960    0.666970 Biso 1.000000  O     
 O6     1.0    0.517210    0.544960    0.166970 Biso 1.000000  O     
 O7     1.0    0.982790    0.044960    0.166970 Biso 1.000000  O     
 O8     1.0    0.017210    0.044960    0.666970 Biso 1.000000  O     
 O9     1.0    0.168600    0.046150    0.984450 Biso 1.000000  O     
 O10    1.0    0.831400    0.046150    0.484450 Biso 1.000000  O     
 O11    1.0    0.668600    0.546150    0.484450 Biso 1.000000  O     
 O12    1.0    0.331400    0.546150    0.984450 Biso 1.000000  O     
 O13    1.0    0.028100    0.439310    0.838690 Biso 1.000000  O     
 O14    1.0    0.971900    0.439310    0.338690 Biso 1.000000  O     
 O15    1.0    0.528100    0.939310    0.338690 Biso 1.000000  O     
 O16    1.0    0.471900    0.939310    0.838690 Biso 1.000000  O     
 O17    1.0    0.333940    0.944240    0.513600 Biso 1.000000  O     
 O18    1.0    0.666060    0.944240    0.013600 Biso 1.000000  O     
 O19    1.0    0.833940    0.444240    0.013600 Biso 1.000000  O     
 O20    1.0    0.166060    0.444240    0.513600 Biso 1.000000  O     
 O21    1.0    0.362460    0.335760    0.753700 Biso 1.000000  O     
 O22    1.0    0.637540    0.335760    0.253700 Biso 1.000000  O     
 O23    1.0    0.862460    0.835760    0.253700 Biso 1.000000  O     
 O24    1.0    0.137540    0.835760    0.753700 Biso 1.000000  O     
 C1     1.0    0.219620    0.696300    0.345660 Biso 1.000000  C     
 C2     1.0    0.780380    0.696300    0.845660 Biso 1.000000  C     
 C3     1.0    0.719620    0.196300    0.845660 Biso 1.000000  C     
 C4     1.0    0.280380    0.196300    0.345660 Biso 1.000000  C     
 C5     1.0    0.288060    0.246270    0.747860 Biso 1.000000  C     
 C6     1.0    0.711940    0.246270    0.247860 Biso 1.000000  C     
 C7     1.0    0.788060    0.746270    0.247860 Biso 1.000000  C     
 C8     1.0    0.211940    0.746270    0.747860 Biso 1.000000  C     
 C9     1.0    0.026060    0.037370    0.028830 Biso 1.000000  C     
 C10    1.0    0.973940    0.037370    0.528830 Biso 1.000000  C     
 C11    1.0    0.526060    0.537370    0.528830 Biso 1.000000  C     
 C12    1.0    0.473940    0.537370    0.028830 Biso 1.000000  C     
 C13    1.0    0.470480    0.972450    0.467870 Biso 1.000000  C     
 C14    1.0    0.529520    0.972450    0.967870 Biso 1.000000  C     
 C15    1.0    0.970480    0.472450    0.967870 Biso 1.000000  C     
 C16    1.0    0.029520    0.472450    0.467870 Biso 1.000000  C     
 C17    1.0    0.259150    0.805110    0.134100 Biso 1.000000  C     
 C18    1.0    0.740850    0.805110    0.634100 Biso 1.000000  C     
 C19    1.0    0.759150    0.305110    0.634100 Biso 1.000000  C     
 C20    1.0    0.240850    0.305110    0.134100 Biso 1.000000  C     
 H1     1.0    0.348140    0.686940    0.360320 Biso 1.000000  H     
 H2     1.0    0.651860    0.686940    0.860320 Biso 1.000000  H     
 H3     1.0    0.848140    0.186940    0.860320 Biso 1.000000  H     
 H4     1.0    0.151860    0.186940    0.360320 Biso 1.000000  H     
 H5     1.0    0.157690    0.696320    0.454220 Biso 1.000000  H     
 H6     1.0    0.842310    0.696320    0.954220 Biso 1.000000  H     
 H7     1.0    0.657690    0.196320    0.954220 Biso 1.000000  H     
 H8     1.0    0.342310    0.196320    0.454220 Biso 1.000000  H     
 H9     1.0    0.175750    0.630030    0.263630 Biso 1.000000  H     
 H10    1.0    0.824250    0.630030    0.763630 Biso 1.000000  H     
 H11    1.0    0.675750    0.130030    0.763630 Biso 1.000000  H     
 H12    1.0    0.324250    0.130030    0.263630 Biso 1.000000  H     
 H13    1.0    0.155840    0.249610    0.747730 Biso 1.000000  H     
 H14    1.0    0.844160    0.249610    0.247730 Biso 1.000000  H     
 H15    1.0    0.655840    0.749610    0.247730 Biso 1.000000  H     
 H16    1.0    0.344160    0.749610    0.747730 Biso 1.000000  H     
 H17    1.0    0.432590    0.521910    0.439810 Biso 1.000000  H     
 H18    1.0    0.567410    0.521910    0.939810 Biso 1.000000  H     
 H19    1.0    0.932590    0.021910    0.939810 Biso 1.000000  H     
 H20    1.0    0.067410    0.021910    0.439810 Biso 1.000000  H     
 H21    1.0    0.041160    0.529340    0.047750 Biso 1.000000  H     
 H22    1.0    0.958840    0.529340    0.547750 Biso 1.000000  H     
 H23    1.0    0.541160    0.029340    0.547750 Biso 1.000000  H     
 H24    1.0    0.458840    0.029340    0.047750 Biso 1.000000  H     
 H25    1.0    0.238790    0.861890    0.366160 Biso 1.000000  H     
 H26    1.0    0.761210    0.861890    0.866160 Biso 1.000000  H     
 H27    1.0    0.738790    0.361890    0.866160 Biso 1.000000  H     
 H28    1.0    0.261210    0.361890    0.366160 Biso 1.000000  H     
 H29    1.0    0.065400    0.813610    0.280010 Biso 1.000000  H     
 H30    1.0    0.934600    0.813610    0.780010 Biso 1.000000  H     
 H31    1.0    0.565400    0.313610    0.780010 Biso 1.000000  H     
 H32    1.0    0.434600    0.313610    0.280010 Biso 1.000000  H     
 H33    1.0    0.229330    0.882770    0.097130 Biso 1.000000  H     
 H34    1.0    0.770670    0.882770    0.597130 Biso 1.000000  H     
 H35    1.0    0.729330    0.382770    0.597130 Biso 1.000000  H     
 H36    1.0    0.270670    0.382770    0.097130 Biso 1.000000  H     
 H37    1.0    0.388700    0.797480    0.141470 Biso 1.000000  H     
 H38    1.0    0.611300    0.797480    0.641470 Biso 1.000000  H     
 H39    1.0    0.888700    0.297480    0.641470 Biso 1.000000  H     
 H40    1.0    0.111300    0.297480    0.141470 Biso 1.000000  H     
 H41    1.0    0.211140    0.738270    0.055280 Biso 1.000000  H     
 H42    1.0    0.788860    0.738270    0.555280 Biso 1.000000  H     
 H43    1.0    0.711140    0.238270    0.555280 Biso 1.000000  H     
 H44    1.0    0.288860    0.238270    0.055280 Biso 1.000000  H     
 N1     1.0    0.189250    0.800420    0.287130 Biso 1.000000  N     
 N2     1.0    0.810750    0.800420    0.787130 Biso 1.000000  N     
 N3     1.0    0.689250    0.300420    0.787130 Biso 1.000000  N     
 N4     1.0    0.310750    0.300420    0.287130 Biso 1.000000  N     
