####################################################################### 
# 
# This file contains crystal structure data downloaded from the 
# Cambridge Structural Database (CSD) hosted by the Cambridge 
# Crystallographic Data Centre (CCDC).
# 
# Full information about CCDC data access policies and citation 
# guidelines are available at http://www.ccdc.cam.ac.uk/access/V1 
# 
# Audit and citation data items may have been added by the CCDC. 
# Please retain this information to preserve the provenance of 
# this file and to allow appropriate attribution of the data. 
# 
#######################################################################

data_CoFor_295K
_audit_block_doi                 10.5517/ccdc.csd.cc1prn36
_database_code_depnum_ccdc_archive 'CCDC 1571858'
loop_
_citation_id
_citation_doi
_citation_year
1 10.1002/chem.201703140 2018
_audit_update_record             
;
2017-08-31 deposited with the CCDC.	2022-09-13 downloaded from the CCDC.
;

_audit_creation_method           SHELXL-2014
_chemical_name_systematic        
;
 ?
;
_chemical_name_common            ?
_chemical_melting_point          ?
_chemical_formula_moiety         ?
_chemical_formula_sum            'C4 H9 Co N O6'
_chemical_formula_weight         226.05

loop_
_atom_type_symbol
_atom_type_description
_atom_type_scat_dispersion_real
_atom_type_scat_dispersion_imag
_atom_type_scat_source
C C 0.0030 0.0010 'International Tables Vol C Tables 4.2.6.8 and 6.1.1.4'
H H 0.0000 0.0000 'International Tables Vol C Tables 4.2.6.8 and 6.1.1.4'
N N 0.0050 0.0030 'International Tables Vol C Tables 4.2.6.8 and 6.1.1.4'
O O 0.0090 0.0050 'International Tables Vol C Tables 4.2.6.8 and 6.1.1.4'
Co Co 0.3470 0.8810 'International Tables Vol C Tables 4.2.6.8 and 6.1.1.4'

_space_group_crystal_system      orthorhombic
_space_group_IT_number           62
_space_group_name_H-M_alt        'P n m a'
_space_group_name_Hall           '-P 2ac 2n'

_shelx_space_group_comment       
;
The symmetry employed for this shelxl refinement is uniquely defined
by the following loop, which should always be used as a source of
symmetry information in preference to the above space-group names.
They are only intended as comments.
;

loop_
_space_group_symop_operation_xyz
'x, y, z'
'-x+1/2, -y, z+1/2'
'x+1/2, -y+1/2, -z+1/2'
'-x, y+1/2, -z'
'-x, -y, -z'
'x-1/2, y, -z-1/2'
'-x-1/2, y-1/2, z-1/2'
'x, -y-1/2, z'

_cell_length_a                   8.40770(10)
_cell_length_b                   11.7215(4)
_cell_length_c                   8.11090(10)
_cell_angle_alpha                90
_cell_angle_beta                 90
_cell_angle_gamma                90
_cell_volume                     799.34(3)
_cell_formula_units_Z            4
_cell_measurement_temperature    293(2)
_cell_measurement_reflns_used    2242
_cell_measurement_theta_min      2.8940
_cell_measurement_theta_max      31.8450

_exptl_crystal_description       prism
_exptl_crystal_colour            red
_exptl_crystal_density_meas      ?
_exptl_crystal_density_method    ?
_exptl_crystal_density_diffrn    1.878
_exptl_crystal_F_000             460
_exptl_transmission_factor_min   ?
_exptl_transmission_factor_max   ?
_exptl_crystal_size_max          0.1
_exptl_crystal_size_mid          0.09
_exptl_crystal_size_min          0.08
_exptl_absorpt_coefficient_mu    1.746
_shelx_estimated_absorpt_T_min   ?
_shelx_estimated_absorpt_T_max   ?
_exptl_absorpt_correction_type   multi-scan
_exptl_absorpt_correction_T_min  0.95893
_exptl_absorpt_correction_T_max  1.00000
_exptl_absorpt_process_details   
;
CrysAlisPro 1.171.38.43 (Rigaku Oxford Diffraction, 2015)
Empirical absorption correction using spherical harmonics,
 implemented in SCALE3 ABSPACK scaling algorithm.
;

_exptl_special_details           
;
 ?
;

_diffrn_ambient_temperature      293(2)
_diffrn_radiation_wavelength     0.67165
_diffrn_radiation_type           synchrotron
_diffrn_source                   synchrotron
_diffrn_measurement_device_type  'CRISTAL beamline, SOLEIL synchrotron'
_diffrn_measurement_method       ?
_diffrn_detector_area_resol_mean ?
_diffrn_reflns_number            3449
_diffrn_reflns_av_unetI/netI     0.0283
_diffrn_reflns_av_R_equivalents  0.0273
_diffrn_reflns_limit_h_min       -7
_diffrn_reflns_limit_h_max       13
_diffrn_reflns_limit_k_min       -11
_diffrn_reflns_limit_k_max       11
_diffrn_reflns_limit_l_min       -12
_diffrn_reflns_limit_l_max       10
_diffrn_reflns_theta_min         2.886
_diffrn_reflns_theta_max         32.126
_diffrn_reflns_theta_full        23.765
_diffrn_measured_fraction_theta_max 0.710
_diffrn_measured_fraction_theta_full 0.777
_diffrn_reflns_Laue_measured_fraction_max 0.710
_diffrn_reflns_Laue_measured_fraction_full 0.777
_diffrn_reflns_point_group_measured_fraction_max 0.710
_diffrn_reflns_point_group_measured_fraction_full 0.777
_reflns_number_total             1228
_reflns_number_gt                1115
_reflns_threshold_expression     'I > 2\s(I)'
_reflns_Friedel_coverage         0.000
_reflns_Friedel_fraction_max     .
_reflns_Friedel_fraction_full    .

_reflns_special_details          
;
 Reflections were merged by SHELXL according to the crystal
 class for the calculation of statistics and refinement.
 
 _reflns_Friedel_fraction is defined as the number of unique
 Friedel pairs measured divided by the number that would be
 possible theoretically, ignoring centric projections and
 systematic absences.
;

_computing_data_collection       'CrysAlis PRO software program'
_computing_cell_refinement       'CrysAlis PRO software program'
_computing_data_reduction        'CrysAlis PRO software program'
_computing_structure_solution    'SHELXL-2014 (Sheldrick, 2014)'
_computing_structure_refinement  'SHELXL-2014 (Sheldrick, 2014)'
_computing_molecular_graphics    'Mercury (McRae, 2006)'
_computing_publication_material  'WINGX (Farrugia, 1999)'

_refine_special_details          
;
 ?
;
_refine_ls_structure_factor_coef Fsqd
_refine_ls_matrix_type           full
_refine_ls_weighting_scheme      calc
_refine_ls_weighting_details     
'w=1/[\s^2^(Fo^2^)+(0.0500P)^2^+0.0351P] where P=(Fo^2^+2Fc^2^)/3'
_atom_sites_solution_primary     ?
_atom_sites_solution_secondary   ?
_atom_sites_solution_hydrogens   geom
_refine_ls_hydrogen_treatment    constr
_refine_ls_extinction_method     none
_refine_ls_extinction_coef       .
_refine_ls_number_reflns         1228
_refine_ls_number_parameters     63
_refine_ls_number_restraints     0
_refine_ls_R_factor_all          0.0311
_refine_ls_R_factor_gt           0.0289
_refine_ls_wR_factor_ref         0.0849
_refine_ls_wR_factor_gt          0.0810
_refine_ls_goodness_of_fit_ref   1.083
_refine_ls_restrained_S_all      1.083
_refine_ls_shift/su_max          0.000
_refine_ls_shift/su_mean         0.000

loop_
_atom_site_label
_atom_site_type_symbol
_atom_site_fract_x
_atom_site_fract_y
_atom_site_fract_z
_atom_site_U_iso_or_equiv
_atom_site_adp_type
_atom_site_occupancy
_atom_site_site_symmetry_order
_atom_site_calc_flag
_atom_site_refinement_flags_posn
_atom_site_refinement_flags_adp
_atom_site_refinement_flags_occupancy
_atom_site_disorder_assembly
_atom_site_disorder_group
C1 C 0.72083(10) -0.02918(10) 0.28012(10) 0.0241(2) Uani 1 1 d . . . . .
H1 H 0.7759 0.0270 0.2227 0.029 Uiso 1 1 calc R U . . .
C2 C 0.48792(12) 0.2500 0.05558(14) 0.0220(3) Uani 1 2 d S T P . .
H2 H 0.5133 0.2500 -0.0560 0.026 Uiso 1 2 calc R U P . .
C3 C 1.0825(3) 0.2500 -0.0217(3) 0.0474(7) Uani 1 2 d S T P . .
H3A H 1.0904 0.2725 -0.1352 0.071 Uiso 0.5 1 calc R U P . .
H3C H 1.1258 0.1748 -0.0085 0.071 Uiso 0.5 1 calc R U P . .
H3B H 1.1409 0.3027 0.0456 0.071 Uiso 0.5 1 calc R U P . .
Co1 Co 0.5000 0.0000 0.0000 0.01701(13) Uani 1 2 d S . P . .
N1 N 0.9141(2) 0.2500 0.02871(18) 0.0332(4) Uani 1 2 d S T P . .
H2N H 0.8628 0.3056 -0.0238 0.050 Uiso 0.5 1 calc R U P . .
H1N H 0.9076 0.2613 0.1370 0.050 Uiso 0.5 1 calc R U P . .
H3N H 0.8703 0.1831 0.0034 0.050 Uiso 0.5 1 calc R U P . .
O1 O 0.59751(7) -0.06784(6) 0.21627(7) 0.0269(2) Uani 1 1 d . . . . .
O2 O 0.77647(7) -0.06066(6) 0.41703(7) 0.0251(2) Uani 1 1 d . . . . .
O3 O 0.47190(9) 0.15580(7) 0.12585(8) 0.0271(2) Uani 1 1 d . . . . .

loop_
_atom_site_aniso_label
_atom_site_aniso_U_11
_atom_site_aniso_U_22
_atom_site_aniso_U_33
_atom_site_aniso_U_23
_atom_site_aniso_U_13
_atom_site_aniso_U_12
C1 0.0254(3) 0.0261(6) 0.0209(3) 0.0030(3) -0.0030(3) -0.0050(4)
C2 0.0251(5) 0.0214(10) 0.0194(5) 0.000 0.0027(3) 0.000
C3 0.0381(9) 0.058(2) 0.0464(8) 0.000 -0.0025(8) 0.000
Co1 0.01774(15) 0.0178(3) 0.01551(15) 0.00007(4) -0.00015(3) -0.00185(4)
N1 0.0390(7) 0.0327(12) 0.0280(5) 0.000 -0.0092(6) 0.000
O1 0.0269(3) 0.0290(6) 0.0248(3) 0.0055(2) -0.0080(2) -0.0065(2)
O2 0.0231(3) 0.0313(6) 0.0210(3) 0.0038(2) -0.00501(18) -0.0048(2)
O3 0.0376(3) 0.0195(6) 0.0243(3) 0.0000(2) 0.0048(2) -0.0017(3)

_geom_special_details            
;
 All esds (except the esd in the dihedral angle between two l.s. planes)
 are estimated using the full covariance matrix.  The cell esds are taken
 into account individually in the estimation of esds in distances, angles
 and torsion angles; correlations between esds in cell parameters are only
 used when they are defined by crystal symmetry.  An approximate (isotropic)
 treatment of cell esds is used for estimating esds involving l.s. planes.
;

loop_
_geom_bond_atom_site_label_1
_geom_bond_atom_site_label_2
_geom_bond_distance
_geom_bond_site_symmetry_2
_geom_bond_publ_flag
C1 O1 1.2444(10) . ?
C1 O2 1.2602(9) . ?
C2 O3 1.2499(10) 8_565 ?
C2 O3 1.2499(10) . ?
C3 N1 1.473(4) . ?
Co1 O1 2.0932(6) 5_655 ?
Co1 O1 2.0932(6) . ?
Co1 O3 2.1054(8) . ?
Co1 O3 2.1054(8) 5_655 ?
Co1 O2 2.1191(6) 2_654 ?
Co1 O2 2.1191(6) 6_556 ?
O2 Co1 2.1191(6) 2_655 ?

loop_
_geom_angle_atom_site_label_1
_geom_angle_atom_site_label_2
_geom_angle_atom_site_label_3
_geom_angle
_geom_angle_site_symmetry_1
_geom_angle_site_symmetry_3
_geom_angle_publ_flag
O1 C1 O2 124.71(9) . . ?
O3 C2 O3 124.11(11) 8_565 . ?
O1 Co1 O1 180.0 5_655 . ?
O1 Co1 O3 91.88(3) 5_655 . ?
O1 Co1 O3 88.12(3) . . ?
O1 Co1 O3 88.12(3) 5_655 5_655 ?
O1 Co1 O3 91.88(3) . 5_655 ?
O3 Co1 O3 180.0 . 5_655 ?
O1 Co1 O2 87.35(2) 5_655 2_654 ?
O1 Co1 O2 92.65(2) . 2_654 ?
O3 Co1 O2 87.85(3) . 2_654 ?
O3 Co1 O2 92.15(3) 5_655 2_654 ?
O1 Co1 O2 92.65(2) 5_655 6_556 ?
O1 Co1 O2 87.35(2) . 6_556 ?
O3 Co1 O2 92.15(3) . 6_556 ?
O3 Co1 O2 87.85(3) 5_655 6_556 ?
O2 Co1 O2 180.00(3) 2_654 6_556 ?
C1 O1 Co1 122.46(6) . . ?
C1 O2 Co1 120.72(6) . 2_655 ?
C2 O3 Co1 122.21(6) . . ?

_refine_diff_density_max         0.295
_refine_diff_density_min         -0.275
_refine_diff_density_rms         0.052

_shelxl_version_number           2014-3

_shelx_res_file                  
;
TITL Cofor_293K in Pnma
CELL  0.67165   8.4077  11.7215   8.1109   90.000   90.000   90.000
ZERR     4.00   0.0001   0.0004   0.0001    0.000    0.000    0.000
LATT   1
SYMM  1/2 - X, - Y, 1/2 + Z
SYMM  1/2 + X, 1/2 - Y, 1/2 - Z
SYMM  - X, 1/2 + Y, - Z
SFAC  C        2.31000 20.84392  1.02000 10.20751   1.58860   0.56870 =
         0.86500  51.65125   0.21560   0.003   0.001     5.370   0.770  12.011
SFAC  H        0.49300 10.51091  0.32291 26.12573   0.14019   3.14236 =
         0.04081  57.79977   0.00304   0.000   0.000     0.000   0.320   1.008
SFAC  N       12.21261  0.00570  3.13220  9.89331   2.01250  28.99754 =
         1.16630   0.58260 -11.52901   0.005   0.003    11.010   0.700  14.007
SFAC  O        3.04850 13.27711  2.28680  5.70111   1.54630   0.32390 =
         0.86700  32.90894   0.25080   0.009   0.005    20.278   0.660  15.999
SFAC  CO      12.28411  4.27910  7.34091  0.27840   4.00340  13.53591 =
         2.34880  71.16927   1.01180   0.347   0.881  3334.091   1.260  58.933
UNIT  16 36 4 24 4
MERG   2
FMAP   2
PLAN   40
ACTA
BOND
L.S.  10
WGHT    0.050000    0.035100
FVAR      21.14492
C1    1    0.720830   -0.029180    0.280125    11.00000    0.02537    0.02609 =
         0.02093    0.00303   -0.00302   -0.00503
AFIX  43
H1    2    0.775892    0.026988    0.222676    11.00000   -1.20000
AFIX   0
C2    1    0.487916    0.250000    0.055578    10.50000    0.02508    0.02138 =
         0.01940    0.00000    0.00265    0.00000
AFIX  43
H2    2    0.513350    0.250001   -0.056010    10.50000   -1.20000
AFIX   0
C3    1    1.082469    0.250000   -0.021729    10.50000    0.03808    0.05765 =
         0.04644    0.00000   -0.00246    0.00000
AFIX 137
H3A   2    1.090436    0.272508   -0.135231    10.50000   -1.50000
H3C   2    1.125784    0.174778   -0.008474    10.50000   -1.50000
H3B   2    1.140877    0.302714    0.045649    10.50000   -1.50000
AFIX   0
CO1   5    0.500000    0.000000    0.000000    10.50000    0.01774    0.01777 =
         0.01551    0.00007   -0.00015   -0.00185
N1    3    0.914126    0.250000    0.028714    10.50000    0.03902    0.03270 =
         0.02796    0.00000   -0.00922    0.00000
AFIX 137
H2N   2    0.862755    0.305567   -0.023786    10.50000   -1.50000
H1N   2    0.907596    0.261302    0.137010    10.50000   -1.50000
H3N   2    0.870334    0.183131    0.003391    10.50000   -1.50000
AFIX   0
O1    4    0.597512   -0.067841    0.216272    11.00000    0.02688    0.02896 =
         0.02475    0.00548   -0.00803   -0.00651
O2    4    0.776469   -0.060665    0.417032    11.00000    0.02310    0.03132 =
         0.02103    0.00380   -0.00501   -0.00481
O3    4    0.471898    0.155797    0.125852    11.00000    0.03760    0.01949 =
         0.02427    0.00005    0.00479   -0.00175
HKLF    4

REM  Cofor_293K in Pnma
REM R1 =  0.0289 for    1115 Fo > 4sig(Fo)  and  0.0311 for all    1228 data
REM     63 parameters refined using      0 restraints

END

WGHT      0.0500      0.0350

REM Highest difference peak  0.295,  deepest hole -0.275,  1-sigma level  0.052
Q1    1   0.5348 -0.0069 -0.0697  11.00000  0.05    0.30
Q2    1   0.5031 -0.0382 -0.0950  11.00000  0.05    0.27
Q3    1   1.0022  0.2500  0.0041  10.50000  0.05    0.26
Q4    1   0.7428 -0.0416  0.3600  11.00000  0.05    0.25
Q5    1   0.4369 -0.0071 -0.0487  11.00000  0.05    0.21
Q6    1   0.5813 -0.0456 -0.0403  11.00000  0.05    0.19
Q7    1   0.5485  0.1561  0.0995  11.00000  0.05    0.19
Q8    1   0.5846  0.2500 -0.0560  10.50000  0.05    0.18
Q9    1   0.8224 -0.0020  0.1861  11.00000  0.05    0.18
Q10   1   0.7441  0.0652  0.2507  11.00000  0.05    0.18
Q11   1   0.4935  0.0563  0.2046  11.00000  0.05    0.18
Q12   1   0.5021  0.0469 -0.0944  11.00000  0.05    0.17
Q13   1   0.6077  0.2500  0.2041  10.50000  0.05    0.17
Q14   1   0.6623 -0.0555  0.2475  11.00000  0.05    0.17
Q15   1   0.8426  0.2500  0.3092  10.50000  0.05    0.16
Q16   1   0.4632  0.1635  0.2080  11.00000  0.05    0.16
Q17   1   0.6033  0.3460 -0.0020  11.00000  0.05    0.15
Q18   1   0.4270  0.1521  0.0737  11.00000  0.05    0.15
Q19   1   0.4839  0.1162  0.0462  11.00000  0.05    0.14
Q20   1   0.8451  0.0083  0.4103  11.00000  0.05    0.14
Q21   1   0.7710 -0.0330  0.2199  11.00000  0.05    0.14
Q22   1   0.7478 -0.0011  0.5000  11.00000  0.05    0.14
Q23   1   0.5415  0.0973 -0.0191  11.00000  0.05    0.13
Q24   1   0.3934  0.3012 -0.1085  11.00000  0.05    0.13
Q25   1   0.8621 -0.0907  0.4113  11.00000  0.05    0.13
Q26   1   0.6433 -0.0096  0.1145  11.00000  0.05    0.13
Q27   1   0.6326 -0.0473  0.1333  11.00000  0.05    0.13
Q28   1   0.6126  0.0417  0.1572  11.00000  0.05    0.13
Q29   1   0.6752 -0.0943  0.4508  11.00000  0.05    0.13
Q30   1   0.5988 -0.0261  0.1566  11.00000  0.05    0.13
Q31   1   1.0888  0.2500 -0.2884  10.50000  0.05    0.13
Q32   1   0.8549 -0.0573  0.3731  11.00000  0.05    0.12
Q33   1   0.9797  0.0733  0.1598  11.00000  0.05    0.12
Q34   1   0.8604  0.2500 -0.2085  10.50000  0.05    0.12
Q35   1   1.1520  0.0805  0.0609  11.00000  0.05    0.12
Q36   1   1.1500  0.2500  0.0267  10.50000  0.05    0.12
Q37   1   0.3861  0.1105  0.1981  11.00000  0.05    0.12
Q38   1   1.1717  0.0734 -0.0790  11.00000  0.05    0.12
Q39   1   1.2782  0.2500  0.1084  10.50000  0.05    0.12
Q40   1   0.5960  0.2963 -0.0979  11.00000  0.05    0.12
;
_shelx_res_checksum              45830

_shelx_hkl_file                  
;
   0   5   0 11.7126 12.9542   1
   1   0   0 3.13301 9.84728   1
   1   1   0 110.359 44.7273   1
   1  -1   0 15.7167 25.9176   1
   1   2   0 34.6498 53.6054   1
   1  -2   0 39.2598 21.3607   1
   1   3   0 90.5691 55.6626   1
   1   4   0 20.7773 32.3742   1
   1   5   0 269.662 98.2538   1
   1   6   0 65.0069 11.8151   1
   1   7   0 54.9828 37.0881   1
   1   8   0-59.6313 51.2125   1
   1   9   0 29.9146 47.7087   1
   2   2   0 239283. 5572.17   1
   2  -5   0 150590. 3372.60   1
   2   5   0 139887. 3829.19   1
   2   7   0 26823.6 1270.33   1
   2   9   0 4485.58 507.614   1
   3   0   0 358.663 142.329   1
   3   1   0 55.9206 56.5378   1
   3  -1   0 68.9019 38.6535   1
   3   2   0 155.731 97.0414   1
   3  -2   0 114.149 74.9924   1
   3   3   0 31.6700 33.7284   1
   3  -3   0-25.1288 21.7772   1
   3   4   0 33.1815 34.3451   1
   3  -4   0 14.4067 20.3650   1
   3  -5   0-37.1656 20.8828   1
   3   5   0 159.941 95.9950   1
   3  -6   0-23.5615 56.2900   1
   3   6   0 123.452 76.5189   1
   3  -7   0 24.0818 28.8745   1
   3   7   0 26.3817 48.0124   1
   3   8   0 168.548 97.4025   1
   3   9   0 84.5712 100.106   1
   3  10   0-8.92399 62.4740   1
   4   3   0 424060. 9966.18   1
   4   5   0 41515.9 1963.00   1
   4  -5   0 42394.2 1737.76   1
   4   7   0 5923.10 725.871   1
   4  -7   0 6690.68 587.910   1
   4   9   0 13238.2 1125.58   1
   4  10   0 199783. 5895.29   1
   5   0   0 69.8090 155.190   1
   5  -1   0-88.9535 87.2076   1
   5   1   0 62.5487 48.5499   1
   5   2   0-62.8922 100.109   1
   5  -2   0-32.6803 52.4006   1
   5  -3   0 14.9812 89.9678   1
   5   3   0-50.2468 132.921   1
   5   4   0-112.298 97.3100   1
   5  -4   0 18.5324 82.8317   1
   5   5   0-39.7220 133.059   1
   5  -5   0 62.2962 60.6772   1
   5   6   0 28.0707 123.334   1
   5  -6   0 60.6476 92.5985   1
   5   7   0-8.00654 83.6099   1
   5  -7   0-12.7986 75.9569   1
   5   8   0 112.039 152.208   1
   5   9   0 2293.43 532.545   1
   5  10   0 130.911 117.413   1
   6   0   0 196812. 5768.14   1
   6   1   0 21310.6 1475.75   1
   6  -1   0 20783.0 1429.53   1
   6  -2   0 418797. 10467.0   1
   6   2   0 441223. 10631.2   1
   6   3   0 124277. 4318.15   1
   6  -3   0 130168. 4245.51   1
   6   4   0 485406. 12304.0   1
   6  -4   0 536891. 12193.6   1
   6   5   0 208565. 6175.80   1
   6  -5   0 201783. 5845.15   1
   6   7   0 39700.8 2247.57   1
   6  -7   0 40541.7 2057.01   1
   6   9   0 222868. 6843.83   1
   6  10   0 613662. 15006.7   1
   6  11   0 29880.9 2124.09   1
   7   0   0 73.2510 53.7945   1
   7  -1   0-74.9393 187.481   1
   7   1   0-6.43423 90.0152   1
   7   2   0 250.361 217.200   1
   7  -2   0 83.9406 106.099   1
   7  -3   0-8.58642 126.168   1
   7   3   0 96.6532 114.548   1
   7  -4   0 68.6079 16.9240   1
   7   4   0 40.7440 149.388   1
   7  -5   0 33.7881 46.3481   1
   7   5   0 40.9789 109.066   1
   7  -6   0 68.4940 128.764   1
   7   6   0 1672.30 474.426   1
   7  -7   0 0.79407 80.8163   1
   7   7   0 101.053 156.132   1
   7   8   0 111.901 235.329   1
   7   9   0 1832.44 482.426   1
   7  10   0 241.712 154.147   1
   7  11   0 43.0160 179.424   1
   8   1   0 30803.5 2052.37   1
   8  -1   0 34445.2 2121.37   1
   8  -2   0 754132. 17591.9   1
   8  -3   0 4956.63 780.132   1
   8   3   0 5748.99 859.092   1
   8  -4   0 560609. 13761.8   1
   8   4   0 558814. 13835.9   1
   8  -5   0 57283.6 2832.93   1
   8   5   0 47119.9 2677.49   1
   8  -6   0 368395. 9929.90   1
   8   6   0 367272. 10029.2   1
   8   7   0 55.8619 91.5009   1
   8  -7   0 265.693 245.441   1
   8   8   0 260473. 7966.76   1
   8   9   0 1556.49 503.520   1
   8  10   0 159739. 5867.70   1
   8  11   0 30571.5 2300.24   1
   9   0   0 58.2370 108.720   1
   9   1   0-59.3713 144.791   1
   9  -1   0-207.624 166.458   1
   9   2   0-20.8628 119.825   1
   9  -2   0-63.6505 139.984   1
   9   3   0 12.1122 169.250   1
   9  -3   0 11.0215 149.920   1
   9  -4   0 239.756 210.120   1
   9   4   0 12.2861 117.436   1
   9  -5   0 465.853 274.800   1
   9   5   0 57.9880 82.6700   1
   9   6   0 88.2262 95.5333   1
   9  -6   0-77.4857 169.811   1
   9   7   0 63.5110 173.722   1
   9   8   0 57.6155 139.111   1
   9   9   0 1210.61 436.723   1
   9  10   0 332.925 239.299   1
   9  11   0-2.61831 171.055   1
  10   0   0 666597. 16392.5   1
  10   1   0 8844.39 1158.58   1
  10  -1   0 8486.49 1122.73   1
  10  -2   0 350407. 9876.08   1
  10   2   0 340484. 9765.39   1
  10   3   0 12956.3 1392.21   1
  10  -3   0 13476.3 1432.02   1
  10   4   0 365151. 10279.0   1
  10  -4   0 370046. 10439.2   1
  10   5   0 15259.0 1542.94   1
  10  -5   0 15404.1 1569.94   1
  10   6   0 69729.7 3565.33   1
  10  -6   0 74709.9 3720.85   1
  10   7   0 1995.38 577.148   1
  10   8   0 148882. 5770.96   1
  10   9   0 40389.4 2711.99   1
  10  10   0 82046.8 4115.36   1
  10  11   0 7440.26 1186.90   1
  11   0   0-99.3354 214.437   1
  11   1   0 13.7707 146.361   1
  11  -1   0 59.5657 155.601   1
  11   2   0 45.7655 128.071   1
  11  -2   0 213.438 228.989   1
  11   3   0-58.4485 163.418   1
  11  -3   0 54.2984 117.777   1
  11  -4   0-50.2315 107.992   1
  11   4   0-225.272 206.693   1
  11   5   0-24.6884 200.203   1
  11  -5   0 31.7230 156.741   1
  11   6   0-165.698 164.762   1
  11   7   0 495.927 263.415   1
  11   8   0-17.7555 143.741   1
  11   9   0-106.921 135.632   1
  11  10   0-146.848 177.827   1
  12   0   0 149065. 5782.16   1
  12   1   0 19070.1 1813.99   1
  12  -1   0 19061.2 1828.31   1
  12  -2   0 69383.8 3745.87   1
  12   2   0 75719.6 3799.51   1
  12  -3   0 13925.2 1585.05   1
  12   3   0 12703.2 1484.24   1
  12   4   0 208267. 6864.32   1
  12  -4   0 161397. 6518.39   1
  12  -5   0 8380.44 1259.45   1
  12   5   0 9607.94 1252.48   1
  12   6   0 50096.7 3118.48   1
  13  -3   0-105.649 180.611   1
   0   0  -1 137.848 51.0235   1
   0   1   1 1124.47 143.606   1
   0   1  -1 1737.03 162.776   1
   0   2   1 54.8502 47.1720   1
   0   2  -1 56.8623 24.8722   1
   0   4  -1 68.9477 37.1310   1
   0   4   1 49.3311 51.3656   1
   0   6   1-22.3015 28.4519   1
   0  -7  -1 123553. 3063.67   1
   0  -8  -1 61.8675 64.5629   1
   1  -1   1 67309.6 1709.28   1
   1   1   1 65433.6 1808.10   1
   1   1  -1 62782.5 1779.98   1
   1  -1  -1 65296.3 1779.15   1
   1  -7  -1 38601.3 1246.66   1
   1   7   1 37681.4 1472.12   1
   1   9  -1 256.295 94.4740   1
   1   9   1 293.535 116.215   1
   2   3  -1 160961. 3972.80   1
   2  -3   1 164119. 3671.97   1
   2  -3  -1 153997. 3785.87   1
   2   4  -1 377.527 131.284   1
   2  -4  -1 430.331 121.974   1
   2  -4   1 887.628 149.427   1
   2   4   1 465.349 156.741   1
   2   5  -1 1040.50 221.848   1
   2  -5   1 674.053 114.315   1
   2   5   1 1467.83 264.910   1
   2  -5  -1 1117.97 189.779   1
   2   6   1 154665. 4172.13   1
   2  -6  -1 150055. 3751.22   1
   2   6  -1 160844. 4160.07   1
   2   7   1 212754. 5625.45   1
   2   7  -1 233840. 5592.93   1
   2   8  -1 119877. 3134.95   1
   2   8   1 128118. 3343.98   1
   2   9  -1 152391. 4303.26   1
   2   9   1 174723. 4617.97   1
   2  10   1 138.330 83.0010   1
   3  -1   1 315985. 7307.22   1
   3  -5  -1 121982. 3451.76   1
   3   5  -1 135053. 3857.21   1
   3  -5   1 134360. 3341.78   1
   3   5   1 124814. 3782.56   1
   3  -7  -1 137005. 3510.60   1
   3   7   1 126635. 3935.19   1
   3  -7   1 124633. 3111.35   1
   3   7  -1 134335. 3985.54   1
   3   9   1-13.4763 88.2286   1
   3   9  -1 109.567 118.563   1
   3  10   1 433692. 10435.5   1
   3  10  -1 430535. 10307.0   1
   4   0   1-54.5151 105.998   1
   4   0  -1 65.4645 92.0213   1
   4  -1   1 196808. 5251.90   1
   4  -1  -1 197551. 5292.48   1
   4   1   1 208324. 5356.40   1
   4   1  -1 196730. 5349.02   1
   4  -2   1 213354. 5527.69   1
   4   2  -1 209195. 5704.64   1
   4  -2  -1 213964. 5620.41   1
   4   2   1 230549. 5784.20   1
   4   3  -1 23398.1 1378.97   1
   4  -3   1 21653.8 1201.34   1
   4   3   1 24979.3 1403.69   1
   4  -3  -1 22161.1 1256.17   1
   4   4  -1 7820.08 778.024   1
   4  -4  -1 6653.40 660.762   1
   4   4   1 8378.37 798.889   1
   4  -4   1 8011.37 664.009   1
   4   5   1 82191.6 2945.51   1
   4   5  -1 77757.3 2890.12   1
   4  -5  -1 77191.4 2639.02   1
   4  -5   1 71409.7 2482.36   1
   4   6   1 273615. 7231.23   1
   4  -6  -1 277082. 6814.82   1
   4  -7   1 15219.9 891.544   1
   4   7   1 14978.0 1167.17   1
   4   7  -1 14916.4 1155.59   1
   4  -7  -1 13175.2 932.248   1
   4   8   1 130832. 4333.76   1
   4   8  -1 135808. 4343.14   1
   4  -8  -1 132083. 3768.06   1
   4   9  -1 22173.8 1501.43   1
   4   9   1 22938.3 1541.84   1
   4  10   1 1121.77 342.937   1
   4  10  -1 1551.75 379.027   1
   5   1   1 30703.4 1674.49   1
   5   1  -1 27419.1 1634.00   1
   5  -1   1 27430.2 1556.47   1
   5  -1  -1 28981.1 1618.55   1
   5  -3   1 77466.3 2838.98   1
   5   3  -1 78632.8 3028.70   1
   5   3   1 81394.4 3052.86   1
   5  -3  -1 80868.4 2953.21   1
   5   5   1 185382. 5531.60   1
   5  -5  -1 190899. 5331.93   1
   5   5  -1 179739. 5514.80   1
   5  -5   1 189949. 5182.35   1
   5   6  -1 564369. 11979.4   1
   5   6   1 568398. 11984.5   1
   5   7   1 840.151 295.178   1
   5   7  -1 666.294 294.975   1
   5  -7   1 543.971 221.940   1
   5  -7  -1 659.895 234.253   1
   5   9   1 15118.2 1362.09   1
   5   9  -1 19894.1 1523.58   1
   5  10  -1 119954. 4449.13   1
   5  10   1 125618. 4555.89   1
   5  11   1 706.471 300.142   1
   6   0   1 199109. 5845.55   1
   6   0  -1 201223. 5889.87   1
   6  -1  -1 131562. 4294.30   1
   6   1   1 135821. 4347.24   1
   6  -1   1 122784. 4171.12   1
   6   1  -1 120216. 4233.16   1
   6  -2  -1 1982.86 451.744   1
   6   2   1 2141.56 448.964   1
   6  -2   1 1853.39 403.316   1
   6   2  -1 1513.71 412.283   1
   6   3  -1 217042. 6319.16   1
   6   3   1 205805. 6155.27   1
   6  -3   1 221927. 6102.76   1
   6  -3  -1 212714. 6120.66   1
   6  -4  -1 103179. 3644.06   1
   6   4   1 102797. 3742.95   1
   6   4  -1 109234. 3893.06   1
   6   5  -1 108531. 4037.71   1
   6  -5   1 109587. 3758.94   1
   6  -5  -1 112009. 3871.02   1
   6   5   1 106397. 3948.80   1
   6   6   1 23250.0 1668.81   1
   6   6  -1 24134.3 1701.10   1
   6  -6   1 27345.0 1620.43   1
   6  -6  -1 25820.9 1631.16   1
   6   7  -1 34147.6 2116.98   1
   6  -7  -1 37921.4 2019.56   1
   6  -7   1 37568.5 1943.07   1
   6   7   1 34877.0 2104.54   1
   6   8   1 42323.8 2385.65   1
   6   8  -1 47600.2 2543.76   1
   6   9   1 463.228 242.883   1
   6   9  -1 737.882 275.709   1
   6  10   1 25336.2 1869.07   1
   6  10  -1 26890.9 1935.82   1
   6  11   1 33539.7 2280.48   1
   7  -1  -1 65081.6 2918.98   1
   7   1  -1 62773.9 2910.46   1
   7   1   1 65041.4 2910.74   1
   7  -1   1 61051.8 2812.71   1
   7  -2  -1 261723. 7417.78   1
   7   2   1 265631. 7481.05   1
   7  -2   1 277250. 7451.82   1
   7   2  -1 251653. 7471.32   1
   7  -3   1 889.711 329.706   1
   7   3   1 898.069 358.720   1
   7  -3  -1 915.497 339.766   1
   7   3  -1 574.711 235.507   1
   7  -5   1 51.3185 146.648   1
   7   5   1-81.3034 94.7079   1
   7  -5  -1 108.457 100.895   1
   7   5  -1 324.920 274.820   1
   7   6   1 595938. 14371.4   1
   7  -6  -1 614337. 14245.5   1
   7   7  -1 9328.04 1120.21   1
   7  -7  -1 9337.24 1044.59   1
   7  -7   1 10047.0 1032.95   1
   7   7   1 8740.15 1078.47   1
   7   9  -1 31639.2 2181.64   1
   7   9   1 33332.4 2215.41   1
   7  10  -1 249375. 7655.20   1
   7  10   1 241469. 7634.53   1
   7  11   1 12423.2 1410.81   1
   7  11  -1 10588.4 1300.27   1
   8   0   1 172956. 5710.37   1
   8   0  -1 180660. 5858.70   1
   8  -1  -1 52.3514 153.799   1
   8  -1   1 45.5527 61.7542   1
   8   1   1 202.977 181.742   1
   8   2   1 35808.9 2194.50   1
   8  -2   1 33085.5 2073.52   1
   8  -2  -1 35751.1 2212.25   1
   8   2  -1 35410.4 2185.08   1
   8   3  -1 10939.4 1195.84   1
   8  -3  -1 11117.6 1187.13   1
   8  -3   1 10643.4 1123.06   1
   8   3   1 11468.4 1207.81   1
   8   4   1-21.3909 40.9877   1
   8   4  -1 109.658 99.6634   1
   8  -4  -1 20.5763 149.158   1
   8   5  -1 3665.25 693.191   1
   8  -5  -1 3501.47 678.861   1
   8  -5   1 4807.20 765.275   1
   8   5   1 4483.57 733.814   1
   8  -6  -1 11191.3 1198.95   1
   8  -6   1 9567.91 1108.74   1
   8   6   1 9814.58 1166.46   1
   8   6  -1 10508.5 1205.42   1
   8   7  -1 1085.70 394.431   1
   8  -7  -1 1353.68 410.332   1
   8   7   1 1085.87 388.861   1
   8   8   1 3248.76 678.104   1
   8   8  -1 3055.27 677.420   1
   8   9  -1 2227.08 577.942   1
   8   9   1 2991.38 671.672   1
   8  10  -1 12404.9 1400.65   1
   8  10   1 14071.3 1517.60   1
   8  11  -1 157.478 129.348   1
   8  11   1 316.690 222.295   1
   9   0   1 780745. 17674.5   1
   9   0  -1 699715. 17518.3   1
   9  -1  -1 16296.3 1524.55   1
   9   1  -1 16606.6 1538.89   1
   9  -1   1 17225.2 1547.41   1
   9   1   1 19056.8 1630.12   1
   9   2  -1 535062. 13472.4   1
   9  -2   1 525126. 13306.5   1
   9   2   1 536831. 13375.4   1
   9  -2  -1 528469. 13450.3   1
   9  -3   1 2185.23 548.202   1
   9   3   1 3066.73 628.599   1
   9   3  -1 2942.64 631.595   1
   9  -3  -1 3418.58 672.261   1
   9  -4   1 407501. 10930.0   1
   9  -4  -1 383961. 10850.8   1
   9   4   1 413526. 10953.6   1
   9   4  -1 415553. 11002.1   1
   9  -5  -1 3990.02 748.711   1
   9   5   1 3332.07 703.547   1
   9   5  -1 4279.56 794.681   1
   9  -5   1 2832.77 635.466   1
   9  -6   1 137407. 5197.37   1
   9   6   1 133874. 5188.31   1
   9  -6  -1 140691. 5257.77   1
   9   6  -1 137101. 5233.04   1
   9   7  -1-97.5311 116.031   1
   9   7   1-95.8729 215.821   1
   9   8   1 131748. 5294.70   1
   9   8  -1 155182. 5659.98   1
   9   9  -1 12481.6 1425.97   1
   9   9   1 11896.3 1398.63   1
   9  10   1 89883.5 4317.75   1
   9  10  -1 105287. 4650.01   1
   9  11  -1 3433.63 792.949   1
   9  11   1 3288.45 743.582   1
  10   0   1 6112.83 956.006   1
  10   0  -1 6797.33 966.959   1
  10  -1  -1 4092.70 764.480   1
  10   1   1 5074.39 878.908   1
  10   1  -1 3195.01 679.175   1
  10  -1   1 3837.20 750.046   1
  10  -2   1 2837.03 664.103   1
  10   2  -1 3569.87 683.816   1
  10  -2  -1 3469.23 685.729   1
  10   2   1 2461.27 590.406   1
  10   3  -1 32658.6 2286.80   1
  10  -3   1 31747.8 2278.50   1
  10   3   1 33197.8 2299.70   1
  10  -3  -1 33513.2 2342.57   1
  10  -4  -1 13160.1 1458.32   1
  10   4  -1 13423.4 1433.80   1
  10  -4   1 13363.6 1463.34   1
  10   4   1 13808.8 1467.12   1
  10  -5   1 10660.3 1304.78   1
  10   5   1 9521.06 1222.13   1
  10  -5  -1 9092.86 1229.28   1
  10   5  -1 9439.69 1222.46   1
  10   6  -1 1157.67 404.206   1
  10   6   1 1195.63 447.078   1
  10  -6  -1 1694.36 518.594   1
  10  -6   1 1010.10 418.281   1
  10   7  -1 3491.72 753.107   1
  10   7   1 2466.34 647.916   1
  10   8   1 7232.29 1092.36   1
  10   8  -1 5256.29 937.715   1
  10   9   1 4419.19 890.506   1
  10   9  -1 3911.70 818.898   1
  10  10   1 8953.10 1250.69   1
  10  10  -1 8482.96 1222.56   1
  10  11  -1 2676.52 705.988   1
  10  11   1 4402.79 896.781   1
  11   0   1 108575. 4637.33   1
  11   0  -1 101567. 4515.81   1
  11   1   1 5917.47 972.616   1
  11  -1  -1 4889.00 876.002   1
  11  -1   1 5725.91 975.621   1
  11   1  -1 5262.90 930.997   1
  11  -2   1 177825. 6557.73   1
  11  -2  -1 177960. 6575.28   1
  11   2   1 193436. 6671.40   1
  11  -3   1 476.168 295.772   1
  11   3   1 454.406 307.038   1
  11   3  -1 380.299 135.189   1
  11  -3  -1 749.863 373.785   1
  11   4  -1 188034. 6442.04   1
  11  -4   1 174680. 6420.11   1
  11   4   1 182627. 6332.55   1
  11   5  -1 704.095 361.915   1
  11   5   1 751.842 399.374   1
  11  -5   1 536.916 355.201   1
  11  -5  -1 586.899 349.070   1
  11   6   1 204538. 6908.54   1
  11   6  -1 182484. 6624.97   1
  11   7  -1 430.010 358.095   1
  11   7   1 112.237 234.803   1
  11   8   1 159467. 6103.39   1
  11   8  -1 162446. 6147.51   1
  11   9  -1 6346.11 1076.85   1
  11   9   1 5398.35 982.453   1
  11  10   1 117177. 5201.23   1
  11  10  -1 125836. 5364.63   1
  12   0   1 257.445 177.212   1
  12   0  -1-67.6801 234.764   1
  12  -1  -1 162.831 189.499   1
  12   1   1 178.813 181.276   1
  12   1  -1 37.2151 106.467   1
  12  -1   1 114.363 90.6614   1
  12   2   1 2688.05 630.810   1
  12  -2   1 2595.61 691.290   1
  12   2  -1 2201.14 591.051   1
  12  -2  -1 2006.52 608.999   1
  12   3   1 531.128 293.662   1
  12  -3  -1 73.3105 157.992   1
  12  -3   1 60.9745 103.463   1
  12   3  -1 60.8177 152.367   1
  12   4   1 1233.98 495.566   1
  12   4  -1 1901.68 562.532   1
  12  -4  -1 1437.44 532.641   1
  12  -4   1 1335.82 523.147   1
  12  -5   1 829.718 363.249   1
  12   5   1 1152.98 459.651   1
  12   5  -1 1502.23 502.560   1
  12  -5  -1 1135.72 430.801   1
  12   6   1 16756.4 1702.76   1
  12   6  -1 16722.1 1704.29   1
   0   1  -2-25.5769 58.7440   1
   0  -1  -2-78.7112 65.6878   1
   0   2   2 32224.1 1256.86   1
   0   2  -2 36066.9 1244.56   1
   0   3  -2 2.00404 25.1349   1
   0   3   2-12.0802 19.8034   1
   0   5   2 172.728 101.693   1
   0   5  -2 51.3238 24.7313   1
   0   7  -2 40.0864 45.1906   1
   0  -7  -2-38.6809 38.0289   1
   0  -9  -2-25.1673 68.7120   1
   1   3  -2 92387.9 2787.37   1
   1  -3  -2 98749.5 2815.46   1
   1   3   2 98087.7 2860.16   1
   1   4   2 868.174 195.515   1
   1   4  -2 564.818 151.634   1
  -1   4  -2 802.292 143.250   1
   1  -4  -2 884.127 183.966   1
   1   6   2 625.131 167.329   1
   1  -6  -2 442.400 121.793   1
  -1   6  -2 448.819 98.4801   1
   1   6  -2 254.680 93.0309   1
   1   7   2 42412.8 1740.63   1
  -1   7  -2 39117.8 1126.12   1
   1  -7  -2 42582.6 1611.43   1
   1   8  -2 86421.6 2521.37   1
   1   8   2 90506.9 2850.55   1
   1  -9  -2 145383. 3948.93   1
   1   9   2 157845. 4321.96   1
   2  -1   2 113580. 3136.14   1
   2   1   2 117051. 3252.13   1
   2   1  -2 115952. 3265.09   1
   2  -1  -2 119055. 3302.66   1
   2   5  -2 332466. 7761.54   1
   2  -5   2 324709. 7244.70   1
   2   5   2 345497. 7902.68   1
   2  -5  -2 330050. 7643.08   1
  -2   7  -2 54599.0 1565.00   1
   2   7   2 59262.9 2276.96   1
   2  -7  -2 57535.1 2040.43   1
   2   9  -2 29557.7 1489.99   1
   2   9   2 31305.1 1631.90   1
   3   3   2 116304. 3526.21   1
   3   3  -2 119095. 3567.39   1
   3  -3  -2 111406. 3400.37   1
   3  -3   2 112499. 3245.17   1
   3  -4   2 190329. 4741.58   1
   3   4  -2 191075. 5141.26   1
   3   4   2 196517. 5219.58   1
   3  -4  -2 183985. 4960.38   1
   3   5   2 20107.0 1247.48   1
   3  -5  -2 17961.1 1066.41   1
   3   5  -2 19406.8 1192.94   1
   3   6   2 398584. 9836.58   1
   3   6  -2 428369. 9817.06   1
   3   7   2 17165.2 1223.86   1
   3   7  -2 18436.4 1216.81   1
   3  -7  -2 17639.4 1077.47   1
   3  -7   2 16252.8 823.818   1
   3  -8  -2 107168. 3124.42   1
   3   8  -2 107836. 3424.43   1
   3   9   2 12609.0 1083.45   1
   3   9  -2 12007.0 1034.70   1
   3  10   2 11828.7 1063.93   1
   4  -1  -2 2348.48 420.001   1
   4  -1   2 2796.29 451.360   1
   4   1   2 2256.73 421.400   1
   4   1  -2 2626.55 442.936   1
   4  -3   2 12402.2 910.320   1
   4   3  -2 13144.1 1016.21   1
   4   3   2 14272.3 1073.84   1
   4  -3  -2 11782.4 954.338   1
   4   5  -2 16812.8 1231.05   1
   4  -5   2 17754.6 1070.93   1
   4   5   2 16908.1 1239.23   1
   4  -5  -2 18154.8 1204.46   1
   4  -6  -2 431029. 9920.24   1
   4   6  -2 430087. 10213.6   1
   4  -7  -2 13258.8 1000.32   1
   4   7  -2 11804.8 1062.59   1
   4   7   2 11989.8 1090.73   1
   4  -7   2 11109.6 784.676   1
   4   8   2 470826. 11033.9   1
   4   8  -2 414264. 10694.1   1
   4   9   2 69337.6 3021.45   1
   4   9  -2 72808.3 3030.02   1
   4  10   2 442801. 11187.4   1
   4  10  -2 453505. 11189.8   1
   4  11   2 19472.4 1550.58   1
   5  -1  -2 135434. 4195.76   1
   5  -1   2 131136. 4039.67   1
   5   1  -2 121763. 4096.98   1
   5   1   2 120258. 4009.21   1
   5   2   2 26117.2 1583.41   1
   5  -2   2 22468.0 1421.06   1
   5   2  -2 25618.0 1580.23   1
   5  -3   2 12055.6 988.196   1
   5   3  -2 12134.5 1072.52   1
   5   3   2 13313.9 1115.74   1
   5  -3  -2 11531.6 1014.62   1
   5  -4  -2 27033.7 1614.94   1
   5  -4   2 31307.7 1656.57   1
   5   4   2 30578.5 1775.96   1
   5   4  -2 31794.7 1807.52   1
   5  -5  -2 36086.2 1867.21   1
   5   5  -2 34077.9 1933.90   1
   5  -5   2 34516.7 1710.83   1
   5   6   2 15922.0 1291.80   1
   5  -6  -2 15130.8 1165.33   1
   5   6  -2 15993.0 1291.51   1
   5  -6   2 15904.1 1113.70   1
   5  -7  -2 89.1124 91.1770   1
   5   7   2 199.593 154.869   1
   5  -7   2-28.5976 48.3995   1
   5   7  -2 105.148 70.1649   1
   5  -8  -2 17681.5 1282.94   1
   5   8   2 17132.7 1442.57   1
   5   8  -2 21171.3 1578.27   1
   5   9   2 39895.2 2312.95   1
   5   9  -2 43799.2 2406.35   1
   5  10  -2 67878.4 3170.96   1
   5  10   2 67726.0 3214.08   1
   5  11   2 9682.75 1156.92   1
   6   1   2 352.156 226.994   1
   6  -1   2 930.591 348.059   1
   6   1  -2 677.031 326.471   1
   6  -1  -2 392.264 248.258   1
   6   3   2 8309.71 941.848   1
   6  -3  -2 9195.23 979.214   1
   6   3  -2 10930.3 1101.57   1
   6  -3   2 10063.2 962.788   1
   6   5  -2 12408.4 1202.05   1
   6   5   2 12051.7 1171.18   1
   6  -5   2 13794.1 1148.85   1
   6  -5  -2 14738.7 1238.39   1
   6   6  -2 682246. 15289.1   1
   6   6   2 592192. 14926.6   1
   6  -7  -2 42019.6 2219.86   1
   6   7  -2 40889.4 2357.67   1
   6  -7   2 39779.0 2064.96   1
   6   7   2 35858.1 2191.86   1
   6   8  -2 322143. 8954.88   1
   6   8   2 326241. 8986.03   1
   6  -8  -2 319814. 8610.29   1
   6   9   2 15125.1 1441.57   1
   6   9  -2 16516.3 1488.73   1
   6  10  -2 383535. 10132.9   1
   6  10   2 344083. 9929.95   1
   6  11   2 9750.65 1224.51   1
   7   0  -2 110454. 4191.49   1
   7   0   2 118526. 4202.73   1
   7  -1   2 54138.3 2630.77   1
   7   1  -2 51321.1 2662.65   1
   7  -1  -2 53189.1 2654.68   1
   7   1   2 57235.1 2703.86   1
   7  -2   2 39090.8 2155.39   1
   7   2   2 37721.5 2163.94   1
   7  -2  -2 36839.0 2152.54   1
   7   2  -2 39831.4 2284.64   1
   7   3   2 29026.5 1867.02   1
   7  -3  -2 27350.5 1811.88   1
   7   3  -2 28193.1 1860.86   1
   7   4   2 16463.4 1410.38   1
   7  -4   2 16754.9 1384.20   1
   7   4  -2 15948.7 1406.54   1
   7  -4  -2 15598.3 1372.34   1
   7   5   2 27982.9 1867.60   1
   7  -5  -2 21913.9 1682.06   1
   7  -5   2 25023.2 1698.98   1
   7   5  -2 24189.3 1776.66   1
   7  -6   2 6172.90 806.955   1
   7   6   2 5850.21 869.774   1
   7  -6  -2 6277.08 867.878   1
   7   6  -2 7207.75 946.408   1
   7  -7  -2-76.2604 139.114   1
   7   7  -2-137.442 49.1299   1
   7   8  -2 3183.14 655.945   1
   7   8   2 2764.45 648.493   1
   7   9  -2 675.766 320.197   1
   7   9   2 800.667 361.095   1
   7  10  -2 16019.5 1559.19   1
   7  10   2 15641.5 1570.65   1
   7  11   2 47859.7 2933.51   1
   8   0   2 522000. 13120.9   1
   8   0  -2 541710. 13302.0   1
   8  -1  -2 37871.9 2292.88   1
   8  -1   2 37403.4 2243.31   1
   8   1   2 38049.1 2279.77   1
   8   1  -2 36737.6 2278.17   1
   8   2  -2 553050. 13702.1   1
   8   2   2 537234. 13507.9   1
   8  -2   2 559387. 13547.0   1
   8  -2  -2 554896. 13695.7   1
   8  -3  -2 129060. 4921.37   1
   8   3  -2 134653. 5012.15   1
   8   3   2 134938. 4963.65   1
   8  -4  -2 518679. 13222.8   1
   8   4   2 543702. 13252.7   1
   8  -4   2 522190. 13101.8   1
   8   4  -2 529472. 13359.6   1
   8  -5   2 166576. 5575.83   1
   8  -5  -2 160961. 5653.77   1
   8   5   2 179091. 5808.61   1
   8   5  -2 157587. 5634.47   1
   8  -6  -2 443009. 11519.3   1
   8   6  -2 460998. 11700.0   1
   8  -6   2 437939. 11321.7   1
   8   7  -2 38111.8 2466.28   1
   8   7   2 39311.7 2497.43   1
   8  -7  -2 41898.3 2539.28   1
   8   8  -2 332023. 9518.38   1
   8   8   2 319286. 9310.64   1
   8   9   2 3360.48 743.733   1
   8   9  -2 2431.96 628.601   1
   8  10  -2 203639. 7018.34   1
   8  10   2 210492. 7097.52   1
   8  11  -2 1496.74 496.895   1
   8  11   2 2089.26 636.505   1
   9   0  -2 73871.4 3474.30   1
   9   0   2 68993.4 3324.81   1
   9  -1   2 3653.86 694.513   1
   9   1   2 3635.71 689.776   1
   9   1  -2 2959.55 657.543   1
   9  -1  -2 3155.59 684.448   1
   9  -2   2 6397.67 943.104   1
   9   2  -2 8612.10 1107.04   1
   9   2   2 6864.96 940.569   1
   9  -2  -2 6697.37 986.917   1
   9  -3   2 40973.1 2512.03   1
   9  -3  -2 45835.1 2678.52   1
   9   3  -2 41939.5 2580.27   1
   9   3   2 48140.2 2670.05   1
   9   4  -2 309.145 69.1760   1
   9  -4  -2 1212.02 414.582   1
   9  -4   2 717.582 254.978   1
   9   4   2 1334.13 397.100   1
   9   5  -2 15607.9 1513.11   1
   9  -5   2 15053.9 1478.50   1
   9  -5  -2 12661.3 1395.32   1
   9   5   2 14490.8 1463.35   1
   9   6  -2 1162.56 417.383   1
   9  -6  -2 1003.20 403.027   1
   9   6   2 967.595 353.356   1
   9  -6   2 831.279 321.717   1
   9   7   2 2282.89 580.367   1
   9   7  -2 1786.76 539.183   1
   9  -7  -2 1792.60 519.344   1
   9   8  -2 505.519 272.967   1
   9   8   2 237.533 252.578   1
   9   9   2 17390.7 1714.82   1
   9   9  -2 16406.0 1678.56   1
   9  10  -2 24490.4 2098.84   1
   9  10   2 25863.3 2139.23   1
   9  11   2 14436.9 1660.79   1
   9  11  -2 13265.0 1560.16   1
  10   0  -2 197237. 6673.19   1
  10   0   2 194957. 6532.02   1
  10  -1  -2-42.1761 171.262   1
  10   1   2 69.8274 70.8001   1
  10  -1   2 251.356 274.789   1
  10   1  -2-15.6986 168.290   1
  10   2  -2 112043. 4622.87   1
  10  -2  -2 110830. 4684.74   1
  10   2   2 102058. 4384.62   1
  10  -2   2 117445. 4706.10   1
  10  -3   2 16470.6 1592.56   1
  10   3   2 16521.0 1589.59   1
  10  -3  -2 16349.5 1638.17   1
  10   3  -2 18127.0 1695.38   1
  10   4   2 305334. 9119.08   1
  10   4  -2 330642. 9362.58   1
  10  -4  -2 308297. 9390.19   1
  10  -4   2 307908. 9232.55   1
  10  -5   2 6533.55 1048.67   1
  10   5   2 6430.88 1007.78   1
  10  -5  -2 5591.57 981.091   1
  10   5  -2 4965.65 908.267   1
  10   6  -2 218410. 7194.87   1
  10  -6  -2 199474. 7088.32   1
  10   6   2 210929. 7140.02   1
  10   7  -2 9446.45 1266.07   1
  10   7   2 10789.1 1313.52   1
  10   8  -2 281567. 8804.06   1
  10   8   2 275600. 8711.83   1
  10   9  -2 103.418 75.9723   1
  10   9   2 207.665 211.468   1
  10  10  -2 97393.7 4605.42   1
  10  10   2 97742.5 4618.53   1
  10  11  -2 744.855 382.704   1
  10  11   2 652.275 342.558   1
  11   0  -2 16737.0 1670.83   1
  11   0   2 15200.2 1563.60   1
  11   1  -2 57.2490 148.843   1
  11  -1  -2 151.920 211.011   1
  11  -1   2-113.716 219.463   1
  11   1   2 281.290 206.884   1
  11   2  -2 706.553 352.442   1
  11  -2  -2 878.469 375.131   1
  11  -2   2 1007.33 390.383   1
  11   2   2 753.159 363.278   1
  11   3  -2 802.276 369.147   1
  11  -3   2 103.295 195.074   1
  11  -3  -2 311.021 293.575   1
  11   3   2 829.268 380.999   1
  11  -4   2-50.7858 137.372   1
  11   4  -2 147.554 103.604   1
  11  -4  -2 114.440 119.923   1
  11   4   2-10.5599 57.3750   1
  11   5   2 7006.23 1085.19   1
  11  -5  -2 5262.76 968.220   1
  11  -5   2 5112.59 947.955   1
  11   5  -2 6149.41 989.190   1
  11   6  -2 2673.85 672.110   1
  11  -6  -2 1522.71 557.414   1
  11   6   2 2948.02 691.332   1
  11   7   2 192.714 98.2497   1
  11   7  -2 556.827 323.684   1
  11   8  -2 824.807 336.198   1
  11   8   2 473.189 293.082   1
  11   9   2 574.998 298.210   1
  11   9  -2 1263.69 479.361   1
  11  10  -2 3851.21 862.363   1
  12   0  -2 167236. 6293.63   1
  12   0   2 170886. 6292.12   1
  12  -1   2 1104.20 447.124   1
  12   1  -2 997.340 429.502   1
  12  -1  -2 939.978 449.655   1
  12   1   2 1269.45 454.058   1
  12   2   2 86102.7 4162.07   1
  12  -2   2 82938.1 4201.26   1
  12   2  -2 86841.6 4187.81   1
  12  -2  -2 85773.9 4233.74   1
  12   3   2-27.2927 100.634   1
  12   3  -2 24.7965 157.247   1
  12  -3   2 55.8116 42.0212   1
  12  -3  -2 12.0390 158.470   1
  12  -4   2 163803. 6504.98   1
  12   4   2 200080. 6691.66   1
  12   4  -2 199552. 6789.32   1
  12  -4  -2 163900. 6553.73   1
  12   5  -2 7794.21 1162.41   1
  12  -5  -2 6553.33 1129.94   1
  12   5   2 7751.92 1113.56   1
   0   0  -3-16.0225 49.4044   1
   0   2  -3-10.4900 58.2980   1
   0  -2  -3 289.985 114.360   1
   0  -3  -3 7394.39 631.145   1
   0   3  -3 6292.59 558.502   1
   0   4  -3 21.9451 37.1725   1
   0  -4  -3 168.356 126.854   1
   0  -5  -3 30709.0 1455.03   1
   0   5  -3 28236.4 1280.17   1
   0  -6  -3 91.4563 113.118   1
   0   6  -3 57.1790 55.3814   1
   0   7  -3 9621.61 681.699   1
   0  -7  -3 10213.7 833.232   1
   0  -8  -3-34.2001 62.6244   1
   0   8  -3 14.4827 52.4957   1
   0  -9  -3 157583. 4559.91   1
   1   0   3 127412. 3540.66   1
   1   0  -3 125658. 3550.73   1
   1  -1  -3 39300.4 1624.60   1
   1   1  -3 41286.6 1660.14   1
   1   1   3 43495.1 1703.97   1
   1  -1   3 36625.0 1549.34   1
   1  -3  -3 11868.7 834.248   1
   1   3   3 12862.0 869.465   1
  -1   5  -3 1854.19 288.622   1
   1   5  -3 2150.48 349.237   1
   1  -5  -3 2506.28 391.196   1
   1   5   3 2170.54 395.092   1
   1   7  -3 15686.4 987.171   1
   1  -7  -3 13676.3 971.603   1
  -1   7  -3 13620.1 790.312   1
   1   7   3 15181.6 1085.64   1
   1   9   3 30227.4 1643.08   1
   1  -9  -3 28502.9 1521.97   1
   2   2  -3 121463. 3899.79   1
   2   2   3 129820. 3915.26   1
   2  -3   3 329055. 7728.27   1
   2   3   3 341010. 8037.07   1
   2  -3  -3 339362. 8008.38   1
   2   4   3 14135.0 1001.99   1
   2  -4  -3 13720.2 961.006   1
   2  -4   3 14856.1 902.506   1
   2   4  -3 14658.5 998.537   1
   2  -5  -3 55604.5 2215.94   1
   2   5  -3 52825.9 2203.06   1
   2  -6  -3 168295. 4722.04   1
   2   6   3 173755. 4903.50   1
  -2   6  -3 176204. 4381.76   1
   2   6  -3 168897. 4798.36   1
  -2   7  -3 3282.31 369.747   1
   2   7  -3 3487.82 489.583   1
   2  -7  -3 3271.85 470.759   1
   2   7   3 3228.25 508.466   1
   2  -8  -3 57001.2 2344.29   1
   2   8   3 62672.6 2554.50   1
   2   8  -3 62502.0 2399.65   1
   2  -9  -3 2080.68 403.947   1
   2   9  -3 2206.56 403.662   1
   2   9   3 2909.61 531.450   1
   2  10   3 101117. 3670.06   1
   3  -1   3 174436. 4726.37   1
   3   1   3 177247. 4827.97   1
   3   1  -3 163770. 4796.86   1
   3  -1  -3 172744. 4868.19   1
   3  -3   3 176504. 4635.69   1
   3   3  -3 178251. 4944.33   1
   3  -3  -3 179353. 4904.73   1
   3   5   3 37469.1 1867.83   1
   3  -5   3 38051.7 1610.31   1
   3   5  -3 37736.8 1887.96   1
   3  -5  -3 36364.9 1786.78   1
   3   6   3 452616. 10084.1   1
   3  -6  -3 446265. 9873.12   1
   3   7  -3 29823.9 1688.54   1
   3  -7   3 33074.1 1399.99   1
   3   7   3 32105.5 1789.74   1
   3  -7  -3 30261.4 1639.88   1
   3   9  -3 1547.95 389.005   1
   3   9   3 1621.49 425.840   1
   3  10   3 783869. 17837.4   1
   4   0  -3 59212.5 2507.93   1
   4   0   3 58519.3 2419.85   1
   4   1  -3 2151.67 433.944   1
   4  -1  -3 2300.83 422.514   1
   4  -1   3 1591.92 336.099   1
   4   1   3 2358.86 436.177   1
   4  -2   3 255503. 6449.64   1
   4   2   3 253767. 6678.81   1
   4   2  -3 243231. 6650.37   1
   4  -2  -3 235934. 6534.73   1
   4   3  -3 362240. 8781.57   1
   4  -3   3 362151. 8405.29   1
   4  -3  -3 368202. 8667.23   1
   4  -4  -3 15067.2 1138.73   1
   4  -4   3 15466.0 1057.56   1
   4   4  -3 15135.1 1187.03   1
   4   5  -3 302345. 7749.53   1
   4   5   3 289551. 7716.67   1
   4  -5   3 289503. 7245.97   1
   4  -5  -3 290554. 7544.50   1
   4  -6  -3 497.268 215.337   1
   4  -6   3 248.080 152.189   1
   4   6   3 565.614 251.289   1
   4   6  -3 61.2905 111.217   1
   4  -7  -3 113.084 149.604   1
   4   7  -3 54.2291 166.490   1
   4  -7   3 126.826 90.5864   1
   4   7   3 123.881 138.165   1
   4   8   3 12302.1 1169.64   1
   4  -8  -3 12185.2 1091.09   1
   4   8  -3 13096.5 1184.17   1
   4   9   3 137181. 4854.84   1
   4   9  -3 155590. 4969.54   1
   4  10   3 12451.1 1243.40   1
   4  10  -3 13909.6 1276.94   1
   4  11   3 24999.1 1805.06   1
   5   1   3 20132.0 1403.09   1
   5   1  -3 19830.9 1426.74   1
   5  -1   3 18722.2 1332.51   1
   5  -1  -3 19610.5 1424.94   1
   5   3  -3 243.682 224.728   1
   5  -3   3 203.276 191.193   1
   5   3   3 245.840 231.735   1
   5  -3  -3 132.516 158.589   1
   5   5   3 68134.4 2998.22   1
   5  -5  -3 71527.7 2973.83   1
   5  -5   3 69514.1 2720.09   1
   5   5  -3 65029.4 2917.81   1
   5  -6  -3 274497. 7426.92   1
   5   6  -3 264009. 7481.67   1
   5   6   3 260237. 7502.77   1
   5  -6   3 271200. 6999.44   1
   5  -7   3 651.544 230.507   1
   5  -7  -3 475.844 264.258   1
   5   7   3 1156.32 358.322   1
   5   8   3 646348. 15382.4   1
   5   8  -3 642517. 15393.5   1
   5   9   3-92.3344 167.758   1
   5   9  -3 1.79824 70.3821   1
   5  10   3 342450. 9426.87   1
   5  10  -3 340353. 9400.51   1
   5  11   3 22987.5 1818.39   1
   6   0   3 331889. 8672.11   1
   6   0  -3 330941. 8791.82   1
   6  -1   3 9810.28 1016.44   1
   6  -1  -3 9989.58 1048.58   1
   6   1   3 11892.5 1131.63   1
   6   1  -3 10323.7 1075.05   1
   6   2   3 31912.7 1935.99   1
   6   2  -3 30850.1 1919.89   1
   6  -2   3 30534.8 1841.11   1
   6  -2  -3 30927.1 1886.30   1
   6  -3   3 20742.0 1466.31   1
   6   3  -3 21129.6 1560.56   1
   6  -3  -3 19579.5 1488.46   1
   6   3   3 21322.9 1571.25   1
   6  -4  -3 2492.07 520.943   1
   6   4  -3 1955.99 459.650   1
   6  -4   3 2105.46 449.228   1
   6   4   3 2542.51 550.815   1
   6   5  -3 10379.1 1117.25   1
   6   5   3 11866.9 1148.60   1
   6  -5  -3 10794.7 1099.46   1
   6  -5   3 11207.4 1079.83   1
   6   6   3 12044.2 1227.11   1
   6  -6  -3 12386.2 1194.65   1
   6   6  -3 13026.9 1283.79   1
   6  -6   3 13742.0 1169.02   1
   6   7  -3 2227.62 527.432   1
   6  -7  -3 2365.19 517.793   1
   6  -7   3 2075.07 460.167   1
   6   7   3 2518.31 552.193   1
   6   8  -3 4997.78 801.941   1
   6  -8  -3 5690.45 818.146   1
   6   9  -3 9633.06 1142.79   1
   6   9   3 6928.29 987.661   1
   6  10  -3 52476.9 2902.19   1
   6  10   3 45881.2 2742.29   1
   6  11   3 5002.90 870.346   1
   7   0   3 744407. 17001.0   1
   7   0  -3 716340. 17091.8   1
   7   1  -3 877.211 344.002   1
   7  -1  -3 1007.80 357.341   1
   7  -1   3 1161.78 365.134   1
   7   1   3 955.983 371.594   1
   7   2  -3 385135. 10326.9   1
   7  -2   3 403914. 10284.2   1
   7  -2  -3 390245. 10368.9   1
   7   2   3 411621. 10385.8   1
   7   3  -3 7365.18 964.993   1
   7   3   3 6599.16 905.789   1
   7  -3   3 7988.81 961.608   1
   7  -3  -3 8241.19 1006.43   1
   7   4  -3 784799. 18185.1   1
   7   4   3 766934. 18022.2   1
   7  -5   3 74826.4 3302.07   1
   7   5   3 81207.7 3555.48   1
   7  -5  -3 78538.6 3464.39   1
   7   5  -3 83962.2 3646.44   1
   7   6   3 200867. 6289.98   1
   7   6  -3 207761. 6391.47   1
   7  -6  -3 204693. 6277.62   1
   7   7  -3 6881.88 984.453   1
   7   7   3 7416.99 1016.31   1
   7  -7  -3 6809.67 936.541   1
   7   8   3 502310. 12656.0   1
   7   8  -3 458650. 12463.7   1
   7   9   3 6475.19 994.031   1
   7   9  -3 6146.63 979.418   1
   7  10   3 210254. 7008.77   1
   7  10  -3 208479. 7001.73   1
   7  11   3 5.95583 82.7852   1
   8   0  -3 180042. 6097.46   1
   8   0   3 194122. 6129.57   1
   8  -1  -3 5298.96 834.695   1
   8   1  -3 4339.11 744.725   1
   8  -1   3 4526.67 759.449   1
   8   1   3 4649.82 758.236   1
   8   2   3 170185. 5727.52   1
   8  -2   3 170718. 5710.92   1
   8   2  -3 177406. 5895.37   1
   8  -2  -3 172058. 5831.32   1
   8   3   3 5805.58 872.252   1
   8  -3   3 6552.67 913.075   1
   8   3  -3 5730.15 852.332   1
   8  -3  -3 4693.89 802.248   1
   8   4  -3 32884.8 2193.86   1
   8  -4  -3 30720.1 2130.19   1
   8   4   3 31926.2 2121.28   1
   8  -4   3 33871.3 2161.17   1
   8   5  -3 200.665 163.890   1
   8  -5  -3 312.565 176.049   1
   8  -5   3 470.448 299.128   1
   8   5   3 987.817 413.631   1
   8   6   3 81775.0 3807.37   1
   8  -6   3 88798.5 3824.54   1
   8  -6  -3 94616.7 4056.32   1
   8   6  -3 86816.9 3933.38   1
   8  -7  -3 8241.17 1092.14   1
   8   7   3 6844.77 1012.76   1
   8   7  -3 7887.80 1084.21   1
   8   8   3 60824.9 3271.13   1
   8   8  -3 63092.5 3364.96   1
   8   9  -3 1379.70 437.037   1
   8   9   3 1520.89 503.506   1
   8  10  -3 10462.9 1314.30   1
   8  10   3 10687.0 1335.88   1
   8  11   3 1227.19 458.242   1
   9   0   3 375852. 10212.4   1
   9   0  -3 368516. 10273.0   1
   9  -1   3 1103.48 395.277   1
   9   1  -3 2104.37 528.676   1
   9  -1  -3 1716.28 495.003   1
   9   1   3 1326.50 422.469   1
   9   2   3 347767. 9299.89   1
   9  -2   3 339528. 9225.59   1
   9   2  -3 337169. 9343.95   1
   9   3  -3 479.706 347.787   1
   9  -3  -3 335.509 262.582   1
   9  -3   3 70.8739 177.117   1
   9   3   3 330.819 242.757   1
   9  -4   3 445345. 11763.2   1
   9   4   3 441775. 11679.8   1
   9   4  -3 412285. 11606.9   1
   9  -4  -3 454288. 11904.9   1
   9   5   3 28603.9 2126.52   1
   9  -5   3 29062.6 2140.81   1
   9   5  -3 26991.4 2085.86   1
   9  -5  -3 30910.8 2240.40   1
   9   6  -3 339860. 9912.71   1
   9  -6   3 355267. 9963.62   1
   9  -6  -3 333791. 9898.68   1
   9   6   3 343148. 9811.01   1
   9   7  -3 1992.92 592.076   1
   9  -7  -3 2307.09 631.273   1
   9   7   3 2670.59 658.675   1
   9   8   3 274534. 8519.10   1
   9   8  -3 268990. 8497.32   1
   9   9  -3 208.219 165.804   1
   9   9   3 356.237 269.819   1
   9  10  -3 132185. 5527.71   1
   9  10   3 139482. 5634.95   1
   9  11   3 331.351 341.246   1
  10   0  -3 88370.1 3898.87   1
  10   0   3 51818.9 3077.33   1
  10  -1   3 5293.88 893.941   1
  10   1  -3 5483.38 929.679   1
  10  -1  -3 5303.86 915.065   1
  10   1   3 4749.34 836.442   1
  10  -2  -3 20796.6 1852.69   1
  10  -2   3 22337.1 1882.48   1
  10   2   3 20724.0 1781.54   1
  10   2  -3 22139.9 1909.54   1
  10   3  -3 1001.72 375.523   1
  10  -3  -3 1903.37 540.627   1
  10  -3   3 2066.22 501.908   1
  10   3   3 1598.91 461.744   1
  10  -4  -3 1113.35 437.522   1
  10   4  -3 751.652 314.594   1
  10  -4   3 946.971 426.638   1
  10   4   3 853.827 358.373   1
  10  -5   3 20436.8 1861.51   1
  10   5   3 20385.3 1810.80   1
  10   5  -3 20282.3 1849.98   1
  10  -5  -3 21011.3 1914.07   1
  10   6  -3 8.50911 57.0992   1
  10   6   3 177.953 116.281   1
  10   7  -3 504.298 298.121   1
  10   7   3 341.748 181.003   1
  10   8  -3 3893.86 818.669   1
  10   8   3 3497.70 762.459   1
  10   9  -3 232.023 148.050   1
  10   9   3 641.667 400.250   1
  10  10   3 13604.3 1589.63   1
  10  10  -3 12467.8 1553.12   1
  10  11   3 1623.85 554.935   1
  11   0   3 92369.4 4294.93   1
  11   0  -3 98521.4 4459.55   1
  11  -1  -3 1361.34 475.979   1
  11   1  -3 979.203 375.602   1
  11  -1   3 1325.63 485.556   1
  11   1   3 1805.04 534.213   1
  11  -2   3 131180. 5302.67   1
  11  -2  -3 136666. 5487.34   1
  11   2   3 128999. 5199.35   1
  11   2  -3 132241. 5316.03   1
  11  -3  -3 1327.24 500.625   1
  11   3  -3 1525.48 468.025   1
  11  -3   3 1642.29 557.267   1
  11   3   3 914.092 424.458   1
  11  -4  -3 97013.8 4674.24   1
  11  -4   3 103410. 4703.43   1
  11   4   3 114615. 4761.68   1
  11   4  -3 114186. 4846.81   1
  11   5   3 6747.54 1039.31   1
  11   5  -3 6949.89 1081.13   1
  11  -5  -3 5499.92 1009.93   1
  11  -5   3 5217.72 974.786   1
  11   6   3 197708. 6766.00   1
  11   6  -3 188700. 6732.03   1
  11   7  -3 491.143 345.206   1
  11   7   3 110.540 168.237   1
  11   8   3 119314. 5138.54   1
  11   8  -3 115914. 5087.62   1
  11   9  -3 2686.28 706.164   1
  12   0   3 1252.88 393.847   1
  12   0  -3 583.130 271.994   1
  12   1  -3 1074.60 386.585   1
  12  -1  -3 1121.80 444.762   1
  12  -1   3 882.653 395.361   1
  12   1   3 1491.83 494.142   1
  12   2  -3 15878.7 1672.22   1
  12  -2   3 13110.1 1527.51   1
  12   2   3 16142.2 1670.32   1
  12  -2  -3 13542.6 1584.36   1
  12   3  -3 964.775 355.946   1
  12  -3  -3 1142.90 432.545   1
  12  -3   3 1153.02 468.233   1
  12   3   3 1736.53 539.732   1
  12   4  -3 2469.40 629.751   1
  12  -4  -3 1835.28 574.733   1
  12  -4   3 1737.40 539.541   1
  12   4   3 1511.13 506.320   1
  12  -5  -3 8037.34 1245.14   1
   0  -1  -4-10.1619 124.467   1
   0   1  -4 132.388 104.373   1
   0   3  -4 66.4528 122.385   1
   0  -3  -4 240.620 134.576   1
   0   5  -4-37.3418 67.2404   1
   0  -5  -4 268.166 166.026   1
   0  -6  -4 286827. 7349.05   1
   0   6  -4 287726. 7088.67   1
   0   7  -4 1.47943 24.4963   1
   0  -7  -4 72.6545 109.682   1
   0  -9  -4 1.35641 97.2893   1
   0 -10  -4 755003. 17091.5   1
   1   0   4 365664. 8566.13   1
   1   0  -4 357395. 8643.68   1
   1  -1   4 55426.5 2063.00   1
   1   1  -4 50536.7 2070.10   1
   1  -1  -4 53694.1 2138.80   1
   1  -2  -4 249133. 6325.40   1
   1   2   4 244088. 6291.02   1
  -1   2  -4 241687. 6180.46   1
   1   2  -4 242977. 6267.70   1
   1   3  -4 28538.6 1484.76   1
   1  -3  -4 27724.1 1503.66   1
   1   3   4 31531.2 1606.01   1
  -1   3  -4 27700.9 1422.43   1
   1   4  -4 61245.4 2401.71   1
   1  -4  -4 67037.7 2545.63   1
  -1   4  -4 63538.4 2356.36   1
   1   4   4 69522.2 2602.97   1
   1   5  -4 59076.3 2382.78   1
  -1   5  -4 62617.5 2315.77   1
   1   5   4 67591.5 2589.76   1
   1  -5  -4 60242.3 2434.59   1
  -1   6  -4 156363. 4560.04   1
   1  -6  -4 164672. 4897.96   1
   1   6  -4 166218. 4854.63   1
   1  -7  -4 11003.5 967.383   1
  -1   7  -4 11005.3 839.372   1
   1   7  -4 10317.4 886.861   1
   1   7   4 11529.9 1025.74   1
   1  -8  -4 232605. 6281.48   1
   1   8  -4 224803. 6050.75   1
  -1   8  -4 221540. 5724.67   1
   1   8   4 226497. 6300.77   1
  -1  -9  -4 3282.08 567.365   1
   1  -9  -4 4164.12 611.953   1
  -1 -10  -4 15820.3 1291.82   1
   2   1  -4 13675.1 1034.64   1
   2  -1   4 10788.1 885.153   1
   2   1   4 10920.9 911.392   1
   2  -1  -4 10186.8 907.625   1
   2   3  -4 162117. 4907.61   1
   2  -3   4 166463. 4707.69   1
   2   3   4 168467. 4911.17   1
   2   5   4 351236. 8745.86   1
   2   5  -4 334357. 8598.58   1
   2   6   4 109716. 3776.43   1
   2  -6  -4 107391. 3685.14   1
   2   7  -4 2049.07 405.975   1
   2   7   4 1955.61 434.512   1
   2  -7  -4 1969.45 415.434   1
  -2   7  -4 2698.51 406.985   1
   2  -8  -4 641336. 14694.0   1
   2   9   4 8249.70 971.140   1
   2  -9  -4 8400.44 910.416   1
   2   9  -4 7764.32 841.614   1
   3   0  -4 99.3789 111.809   1
   3   0   4-21.2312 42.8857   1
   3  -1   4 40610.5 1881.07   1
   3  -1  -4 40654.6 2021.04   1
   3   1   4 40549.4 1953.53   1
   3   1  -4 41711.1 2028.28   1
   3  -2  -4 61130.9 2580.55   1
   3   2   4 65525.5 2558.87   1
   3  -2   4 61416.5 2400.93   1
   3   2  -4 57759.4 2516.30   1
   3   3   4 1142.66 336.703   1
   3  -3   4 1221.70 301.616   1
   3   3  -4 994.205 281.816   1
   3  -4  -4 10060.3 949.641   1
   3  -4   4 10427.2 883.519   1
   3   4  -4 10752.4 967.776   1
   3   4   4 8835.15 865.322   1
   3  -5  -4 91433.8 3450.17   1
   3  -5   4 96704.1 3250.09   1
   3   5  -4 94835.7 3490.80   1
   3  -6  -4 14048.5 1198.68   1
   3   6   4 15446.0 1226.01   1
   3   6  -4 16056.9 1267.86   1
   3  -7  -4 171.259 103.213   1
   3   7  -4 337.944 185.112   1
   3  -8  -4 2906.69 514.936   1
   3   8  -4 1980.84 463.608   1
   3   8   4 2036.86 474.999   1
   3   9  -4 33563.0 1949.27   1
   3   9   4 32345.9 2018.70   1
   3  -9  -4 33278.5 1948.72   1
   3  10   4 10153.2 1106.37   1
   3  11   4 867.975 387.167   1
   4   0   4 257864. 6889.37   1
   4   0  -4 257892. 7055.82   1
   4  -1   4 50236.4 2240.28   1
   4   1   4 51170.5 2304.97   1
   4   1  -4 43683.0 2247.78   1
   4  -1  -4 51329.5 2365.49   1
   4  -3   4 8858.36 863.131   1
   4   3   4 10267.9 987.576   1
   4   3  -4 9136.04 943.830   1
   4  -3  -4 6513.37 814.990   1
   4   5   4 40926.3 2145.18   1
   4  -5   4 38260.4 1884.77   1
   4   5  -4 37827.1 2102.49   1
   4  -5  -4 39307.7 2089.51   1
   4  -7   4 39198.1 1922.42   1
   4   7   4 44387.1 2330.54   1
   4   7  -4 42101.5 2287.89   1
   4  -7  -4 45137.7 2306.27   1
   4   9   4 15779.6 1437.92   1
   4   9  -4 20958.5 1592.02   1
   4  10   4 796489. 18572.6   1
   4  11   4 1538.54 482.078   1
   5   0   4 24318.7 1600.98   1
   5   0  -4 18554.2 1480.85   1
   5  -1   4 9009.26 931.328   1
   5   1   4 9896.76 1012.21   1
   5   1  -4 8253.22 958.003   1
   5  -1  -4 10887.4 1091.34   1
   5  -2   4 9216.40 937.112   1
   5   2  -4 8640.90 984.870   1
   5   2   4 9152.64 970.817   1
   5  -2  -4 9257.62 977.731   1
   5   3   4 432901. 10777.5   1
   5  -3  -4 434026. 10845.2   1
   5  -3   4 422978. 10527.2   1
   5   3  -4 434899. 10907.1   1
   5  -4  -4 1904.58 453.228   1
   5  -4   4 1069.12 306.156   1
   5   4   4 2121.56 476.291   1
   5   4  -4 1151.26 367.810   1
   5  -5   4 101330. 3543.36   1
   5   5   4 95938.4 3752.78   1
   5   5  -4 88667.9 3655.53   1
   5  -5  -4 91293.1 3681.95   1
   5  -6   4 14188.0 1140.12   1
   5   6   4 13167.9 1236.71   1
   5  -6  -4 12373.9 1206.41   1
   5  -7   4 90032.9 3406.48   1
   5   7   4 96132.6 3829.78   1
   5   7  -4 90086.5 3728.15   1
   5  -7  -4 92275.7 3746.56   1
   5   8   4 16310.7 1458.79   1
   5  -8  -4 16900.7 1449.19   1
   5   9   4 22792.0 1781.17   1
   5   9  -4 24038.5 1805.78   1
   5  10  -4 8013.79 1040.85   1
   5  10   4 7181.86 981.525   1
   5  11   4 2740.82 652.168   1
   6   0   4 220027. 6421.35   1
   6   0  -4 202622. 6380.79   1
   6   1   4 20459.0 1567.72   1
   6  -1   4 21470.7 1564.33   1
   6   1  -4 19787.9 1568.21   1
   6  -1  -4 20294.4 1593.21   1
   6   2  -4 802186. 18469.9   1
   6   3   4 6954.73 907.708   1
   6   3  -4 6066.35 852.439   1
   6  -3   4 7499.97 892.564   1
   6  -3  -4 8184.65 982.333   1
   6   4   4 638012. 13393.1   1
   6  -4  -4 608382. 13328.5   1
   6  -4   4 637527. 13039.2   1
   6  -5   4 137186. 4625.40   1
   6   5   4 136328. 4842.05   1
   6  -5  -4 131337. 4855.75   1
   6   5  -4 139305. 4901.02   1
   6   6   4 630487. 15094.3   1
   6   6  -4 624725. 15200.7   1
   6  -6  -4 619787. 15134.0   1
   6   7   4 2578.36 629.598   1
   6  -7  -4 2723.69 580.267   1
   6  -8  -4 398225. 11091.2   1
   6   8  -4 396618. 11217.6   1
   6   9  -4 1723.05 507.895   1
   6   9   4 1382.97 485.267   1
   6  10   4 520450. 13350.5   1
   6  10  -4 513889. 13422.4   1
   6  11   4 35522.9 2419.69   1
   7   0  -4 19700.6 1620.43   1
   7   0   4 19463.5 1564.21   1
   7   1  -4 19350.9 1608.50   1
   7  -1   4 22398.3 1709.05   1
   7   1   4 19918.4 1624.14   1
   7  -1  -4 21620.7 1679.77   1
   7   2  -4 68011.8 3175.96   1
   7  -2   4 65396.8 3085.06   1
   7   2   4 66555.7 3153.03   1
   7  -2  -4 65783.4 3162.30   1
   7  -3   4 9272.42 1063.41   1
   7   3  -4 8679.97 1060.58   1
   7  -3  -4 8240.67 1042.34   1
   7   4  -4 19793.0 1627.88   1
   7   4   4 13464.4 1361.67   1
   7  -4   4 18245.2 1515.43   1
   7  -4  -4 17343.0 1529.70   1
   7  -5  -4 77845.8 3612.90   1
   7  -5   4 82892.1 3546.11   1
   7   5   4 81056.6 3668.96   1
   7  -6   4 6860.70 928.563   1
   7   6   4 5877.28 907.855   1
   7  -6  -4 7073.03 981.335   1
   7   6  -4 6488.42 957.963   1
   7   7  -4 2904.80 636.498   1
   7   7   4 3164.91 654.153   1
   7  -7  -4 2791.87 636.480   1
   7   8  -4 59582.2 3118.62   1
   7  -8  -4 52851.8 2905.33   1
   7   9   4 13802.4 1474.20   1
   7   9  -4 13552.9 1464.16   1
   7  10  -4-183.304 185.556   1
   7  10   4 122.838 173.256   1
   7  11   4 1652.41 544.611   1
   8   0   4 374849. 10145.1   1
   8   0  -4 370280. 10178.6   1
   8  -1   4 62663.3 3074.08   1
   8   1   4 55235.3 2926.37   1
   8   1  -4 53309.1 2907.28   1
   8  -1  -4 52861.3 2902.77   1
   8   2   4 468050. 11531.0   1
   8   2  -4 459598. 11484.8   1
   8  -2  -4 479839. 11628.7   1
   8  -3   4 95873.0 4018.23   1
   8   3   4 90530.6 3930.75   1
   8   3  -4 96761.2 4048.73   1
   8  -3  -4 88447.4 3960.07   1
   8  -4   4 359790. 9839.09   1
   8   4   4 350736. 9874.79   1
   8   4  -4 354470. 9942.51   1
   8  -4  -4 359642. 10000.1   1
   8   5   4 12251.4 1368.37   1
   8  -5  -4 9698.29 1214.03   1
   8   5  -4 10397.8 1248.63   1
   8  -5   4 11136.1 1234.98   1
   8  -6   4 336692. 9427.26   1
   8   6   4 342322. 9658.67   1
   8   6  -4 330894. 9672.99   1
   8  -6  -4 330037. 9632.85   1
   8   7   4 34296.6 2339.18   1
   8   7  -4 35573.8 2400.08   1
   8  -7  -4 32840.8 2346.33   1
   8   8  -4 217065. 7244.11   1
   8   8   4 210460. 7080.13   1
   8   9  -4 1817.06 549.473   1
   8   9   4 2443.63 656.434   1
   8  10   4 220515. 7413.14   1
   8  10  -4 218916. 7528.90   1
   8  11   4 30308.2 2372.58   1
   9   0  -4 4260.29 783.717   1
   9   0   4 4350.70 793.514   1
   9   1  -4 72.2804 117.883   1
   9  -1  -4-78.6988 225.777   1
   9  -1   4 110.045 168.084   1
   9   1   4-133.038 127.410   1
   9   2   4 11417.8 1289.85   1
   9   2  -4 12694.2 1372.79   1
   9  -2  -4 12088.5 1342.91   1
   9  -2   4 13222.5 1422.17   1
   9   3   4 16265.5 1572.73   1
   9   3  -4 16777.9 1622.77   1
   9  -3  -4 17003.1 1642.08   1
   9  -3   4 15060.3 1560.37   1
   9   4   4 13862.9 1467.40   1
   9   4  -4 17640.6 1663.55   1
   9  -4  -4 16435.3 1630.59   1
   9  -4   4 15675.1 1556.26   1
   9  -5   4 6892.71 1016.47   1
   9  -5  -4 5814.90 953.059   1
   9   5  -4 6759.25 1019.52   1
   9   5   4 5256.72 855.226   1
   9   6  -4 292.049 185.043   1
   9  -6  -4 250.947 220.002   1
   9   6   4 621.289 325.845   1
   9  -7  -4 27383.9 2232.59   1
   9   7   4 25364.6 2062.00   1
   9   7  -4 25015.9 2108.36   1
   9   8   4 14643.1 1566.84   1
   9   8  -4 15038.1 1614.74   1
   9   9  -4 4074.55 844.458   1
   9   9   4 4962.57 926.116   1
   9  10  -4 812.656 369.950   1
   9  10   4 760.185 355.323   1
   9  11   4 1798.45 583.096   1
  10   0   4 380793. 10625.4   1
  10   0  -4 368233. 10569.9   1
  10   1  -4 2069.07 589.017   1
  10  -1  -4 1385.14 519.410   1
  10  -1   4 1557.05 535.133   1
  10   1   4 1283.16 519.084   1
  10  -2   4 252004. 7894.34   1
  10   2  -4 226592. 7579.35   1
  10  -2  -4 239719. 7798.16   1
  10   2   4 236263. 7654.15   1
  10   3   4 5791.39 963.104   1
  10   3  -4 3433.21 721.336   1
  10  -3  -4 3305.18 769.866   1
  10  -3   4 3272.74 737.343   1
  10   4  -4 200291. 7089.85   1
  10  -4   4 215582. 7273.13   1
  10   4   4 220808. 7214.51   1
  10  -4  -4 214423. 7308.85   1
  10  -5   4 36323.2 2575.17   1
  10   5   4 40224.2 2637.29   1
  10   5  -4 39659.4 2664.45   1
  10  -5  -4 36530.3 2608.36   1
  10   6  -4 147486. 5876.57   1
  10  -6  -4 139260. 5894.90   1
  10   7  -4 2109.11 624.463   1
  10   7   4 3230.45 746.182   1
  10   8   4 124749. 5151.61   1
  10   8  -4 118961. 5154.96   1
  10   9  -4 499.422 313.492   1
  10   9   4 1327.58 503.646   1
  10  10  -4 62650.7 3753.77   1
  10  10   4 75031.2 3928.43   1
  11   0  -4 5299.67 937.133   1
  11   0   4 5752.84 959.655   1
  11  -1   4 8561.67 1209.89   1
  11   1   4 9067.08 1234.71   1
  11   1  -4 7007.24 1070.92   1
  11  -1  -4 8261.35 1196.54   1
  11   2  -4 997.629 381.624   1
  11  -2  -4 262.420 138.491   1
  11  -2   4 818.369 341.474   1
  11   2   4 708.036 392.427   1
  11  -3   4 26114.4 2204.78   1
  11  -3  -4 25448.0 2185.81   1
  11   3  -4 29534.4 2293.64   1
  11   3   4 24830.7 2075.37   1
  11   4  -4-174.490 299.349   1
  11  -4  -4 134.781 176.363   1
  11  -4   4 77.9250 49.1753   1
  11   4   4 8.62835 36.4683   1
  11  -5  -4 38382.7 2818.81   1
  11   5   4 45299.3 2896.60   1
  11   5  -4 45891.1 2911.34   1
  11   6   4 13354.1 1525.58   1
  11   6  -4 15069.8 1630.65   1
  11  -6  -4 11000.9 1493.08   1
  11   7  -4 5336.42 970.535   1
  11   7   4 5103.68 946.765   1
  11   8  -4 482.932 260.161   1
  12   0   4 212046. 7504.41   1
  12   0  -4 227261. 7671.35   1
  12   1  -4 1744.08 557.353   1
  12  -1  -4 802.893 355.428   1
  12  -1   4 1460.16 524.741   1
  12   1   4 1162.60 462.100   1
  12  -2   4 96588.4 4682.82   1
  12   2   4 104503. 4695.92   1
  12   2  -4 100438. 4622.97   1
  12  -2  -4 97745.7 4676.75   1
  12  -3  -4 1516.31 570.507   1
  12  -3   4 833.729 397.885   1
  12  -4   4 82100.4 4280.32   1
  12  -4  -4 80410.9 4267.67   1
  12  -5  -4 387.895 297.831   1
   0   0  -5 86.6796 135.660   1
   0   1  -5 110970. 3778.50   1
   0  -1  -5 126468. 3928.20   1
   0  -2  -5 20.0936 102.645   1
   0   2  -5-86.3294 116.722   1
   0  -4  -5 305.526 252.199   1
   0   4  -5 269.819 133.008   1
   0   5  -5 335.768 182.722   1
   0  -5  -5 163.255 134.186   1
   0  -6  -5 87.6435 75.4257   1
   0   6  -5 125.833 108.912   1
   0   7  -5 287713. 7382.28   1
   0  -7  -5 272555. 7552.27   1
   0   8  -5 60.1356 53.8930   1
   0  -8  -5 50.0209 112.679   1
   0  -9  -5 125.528 128.303   1
   0 -10  -5-32.1698 110.778   1
   1   1  -5 26546.2 1549.21   1
  -1   1  -5 25767.3 1523.52   1
   1  -1  -5 25087.8 1522.58   1
   1   3   5 253860. 6682.07   1
   1  -3  -5 262221. 6756.07   1
   1   3  -5 247741. 6633.12   1
   1   5  -5 128136. 4202.85   1
   1   5   5 131544. 4281.87   1
   1  -5  -5 130715. 4302.61   1
  -1   5  -5 132957. 4158.63   1
   1   6  -5 513956. 12296.4   1
   1  -6  -5 532561. 12487.5   1
   1   7  -5 3277.41 550.918   1
   1  -7  -5 3449.13 588.276   1
  -1  -7  -5 3456.12 587.089   1
  -1   7  -5 4763.18 621.153   1
  -1   8  -5 344755. 8722.98   1
  -1  -8  -5 355020. 9215.75   1
   1  -8  -5 373761. 9294.76   1
   1   8  -5 343534. 8918.45   1
   1  -9  -5 106161. 3938.58   1
  -1  -9  -5 100805. 3901.33   1
  -1 -10  -5 818846. 18818.3   1
   2   0  -5 20078.3 1372.95   1
   2   0   5 18819.4 1312.69   1
   2  -1   5 1644.92 369.062   1
   2   1   5 2119.06 428.651   1
   2   1  -5 1548.21 355.580   1
   2  -1  -5 1283.40 359.494   1
   2   2  -5 86861.8 3215.89   1
   2  -2  -5 82173.5 3158.69   1
   2  -3   5 683.159 230.487   1
   2   3   5 320.574 202.740   1
   2   3  -5 415.537 174.523   1
   2  -3  -5 818.802 314.716   1
   2   4  -5 48443.5 2341.30   1
   2   4   5 49122.5 2363.49   1
  -2   4  -5 51317.1 2259.02   1
   2  -4  -5 51045.0 2381.92   1
  -2   5  -5 362023. 8805.12   1
   2  -5  -5 364303. 9067.37   1
   2   5   5 344186. 9039.76   1
   2   5  -5 339652. 8955.20   1
   2  -6  -5 22218.9 1549.12   1
   2   6   5 24444.5 1651.39   1
  -2   6  -5 23840.1 1464.09   1
   2   6  -5 22979.3 1548.80   1
   2   7   5 4765.87 717.784   1
  -2   7  -5 4609.56 621.517   1
   2  -7  -5 4207.88 665.787   1
   2   7  -5 2936.91 556.015   1
   2  -8  -5 37703.0 2093.86   1
   2   8  -5 41729.4 2142.49   1
   2  -9  -5 9484.02 1042.05   1
   2   9  -5 10760.1 1075.07   1
   2   9   5 9781.50 1097.60   1
   2  10   5 3121.41 630.888   1
   3   1  -5 9145.47 979.073   1
   3  -1  -5 8710.46 942.830   1
   3  -1   5 12000.8 1037.13   1
   3   1   5 9122.43 932.265   1
   3  -3  -5 16753.3 1334.12   1
   3  -3   5 18492.7 1299.70   1
   3   3   5 16983.8 1310.54   1
   3   3  -5 17009.4 1327.74   1
   3  -5   5 53941.3 2420.10   1
   3   5   5 57608.0 2662.48   1
   3   5  -5 59931.1 2730.54   1
   3  -6  -5 643423. 15515.5   1
   3   6   5 693784. 15662.6   1
   3   7  -5 1434.30 416.667   1
   3  -7  -5 1299.55 374.675   1
   3   7   5 1756.81 467.062   1
  -3   7  -5 1774.28 406.367   1
   3  -8  -5 505068. 12583.5   1
   3   8   5 503967. 12555.1   1
   3   8  -5 504551. 12511.5   1
   3  -9  -5-38.1526 118.766   1
   3   9   5 206.859 162.760   1
   3   9  -5 139.127 161.686   1
   3  10   5 555719. 13860.8   1
   3  11   5 23770.3 1889.05   1
   4   0   5 18984.0 1378.50   1
   4   0  -5 20760.0 1533.59   1
   4   1   5 14684.6 1231.18   1
   4  -1   5 16819.9 1286.38   1
   4   1  -5 15885.5 1308.36   1
   4  -1  -5 14838.0 1275.52   1
   4  -2   5 37664.4 1974.16   1
   4   2   5 35189.4 1992.16   1
   4   2  -5 37963.8 2115.35   1
   4  -2  -5 36384.2 2088.47   1
   4   3   5 36165.0 2016.15   1
   4  -3   5 35746.2 1940.81   1
   4   3  -5 34360.5 2029.66   1
   4  -3  -5 36265.1 2069.27   1
   4  -4   5 83309.1 3300.34   1
   4   4   5 89590.9 3523.94   1
   4   4  -5 90167.2 3588.96   1
   4  -4  -5 92791.3 3611.68   1
   4  -5   5 16644.5 1294.77   1
   4   5   5 14820.8 1287.37   1
   4   5  -5 15233.2 1363.25   1
   4  -5  -5 16277.8 1366.54   1
   4   6   5 7767.86 939.104   1
   4  -6   5 6964.38 832.274   1
   4   6  -5 7358.63 931.927   1
   4  -6  -5 7477.02 929.908   1
   4   7   5 62153.4 2997.77   1
   4  -7   5 70603.4 2892.01   1
   4   7  -5 61780.0 3032.87   1
   4  -7  -5 63880.4 3023.80   1
   4   8  -5 61676.2 3031.65   1
   4   8   5 62579.3 3039.03   1
   4  -8  -5 67949.2 3127.90   1
   4   9  -5 9551.04 1117.74   1
   4   9   5 11389.1 1221.93   1
   4  -9  -5 9756.88 1118.71   1
   4  10   5 3322.22 695.845   1
   4  11   5 163.524 168.936   1
   5   0  -5 61466.4 2880.86   1
   5   0   5 61135.2 2782.78   1
   5  -1   5 9243.38 986.635   1
   5   1   5 8441.76 967.782   1
   5   1  -5 9244.22 1038.02   1
   5  -1  -5 9547.52 1041.19   1
   5  -2   5 150930. 4941.20   1
   5   2   5 158771. 5119.60   1
   5   2  -5 159033. 5280.83   1
   5  -2  -5 151024. 5128.20   1
   5   3   5 7144.64 899.273   1
   5   3  -5 7243.13 933.985   1
   5  -3  -5 6306.43 867.550   1
   5  -3   5 6298.83 806.715   1
   5   4   5 862290. 19567.1   1
   5  -5   5 46322.3 2350.88   1
   5   5   5 46393.4 2483.12   1
   5   5  -5 45548.1 2533.05   1
   5  -5  -5 42575.4 2433.27   1
   5   6   5 723575. 17014.4   1
   5  -6   5 756918. 16795.9   1
   5   6  -5 692816. 17055.3   1
   5  -6  -5 731090. 17145.2   1
   5  -7  -5 1279.77 407.077   1
   5   7   5 1950.20 511.863   1
   5   7  -5 1263.80 406.450   1
   5   8   5 856021. 20220.9   1
   5   8  -5 890341. 20386.8   1
   5  -8  -5 891086. 20418.3   1
   5   9  -5 13883.4 1421.45   1
   5   9   5 14555.6 1434.37   1
   5  10   5 537988. 13777.3   1
   5  11   5 4.54522 174.567   1
   6   0   5 2789.82 564.015   1
   6   0  -5 2492.16 557.515   1
   6  -1   5 4740.79 746.151   1
   6   1   5 7282.37 923.837   1
   6  -1  -5 5609.45 839.469   1
   6   1  -5 5264.35 803.513   1
   6  -2   5 1742.09 453.655   1
   6   2   5 2461.96 508.084   1
   6   2  -5 2019.30 515.408   1
   6  -2  -5 1618.40 457.050   1
   6   3   5 20866.1 1628.00   1
   6   3  -5 20206.4 1658.23   1
   6  -3  -5 21492.7 1716.56   1
   6  -4  -5 4512.64 779.126   1
   6  -4   5 3926.50 681.613   1
   6   4   5 4314.44 727.794   1
   6   4  -5 4303.18 733.626   1
   6   5   5 108531. 4326.25   1
   6  -5   5 118228. 4275.24   1
   6   5  -5 112078. 4430.62   1
   6  -5  -5 112130. 4474.74   1
   6   6   5 52380.5 2804.10   1
   6  -6  -5 59877.5 3093.41   1
   6   6  -5 54940.1 2917.78   1
   6  -6   5 56316.6 2770.22   1
   6   7   5 732.224 316.382   1
   6   7  -5 603.144 345.540   1
   6  -7  -5 637.641 294.087   1
   6   8  -5 4815.20 829.612   1
   6   8   5 4186.37 782.132   1
   6  -8  -5 5118.92 885.232   1
   6   9   5 394.186 305.783   1
   6   9  -5 389.903 264.463   1
   6  10  -5 1129.99 450.608   1
   6  10   5 742.628 332.864   1
   6  11   5 3662.21 792.097   1
   7   0   5 999999. 22596.5   1
   7  -1   5 33335.6 2168.13   1
   7   1   5 38512.8 2309.43   1
   7   1  -5 39623.2 2397.78   1
   7  -1  -5 37751.4 2379.02   1
   7   2   5 730396. 17090.8   1
   7   2  -5 771336. 17416.2   1
   7  -2  -5 724005. 17285.9   1
   7  -3   5 44845.3 2540.87   1
   7   3   5 46964.5 2598.51   1
   7   3  -5 47091.3 2656.34   1
   7  -3  -5 44802.5 2645.78   1
   7  -4   5 674619. 16066.2   1
   7   4   5 651775. 16112.7   1
   7   4  -5 673257. 16292.0   1
   7  -4  -5 681968. 16422.7   1
   7  -5   5 926.210 362.211   1
   7   5   5 1240.79 442.541   1
   7  -5  -5 988.396 416.581   1
   7  -6   5 257745. 7577.48   1
   7   6   5 260762. 7774.82   1
   7  -6  -5 272155. 8050.73   1
   7   7   5 2181.22 586.150   1
   7   7  -5 2081.68 567.399   1
   7  -7  -5 2274.99 578.582   1
   7   8   5 247987. 7860.67   1
   7   8  -5 256656. 8033.38   1
   7  -8  -5 249225. 7968.63   1
   7   9   5 5627.85 926.811   1
   7   9  -5 4953.24 925.425   1
   7  10   5 138315. 5465.63   1
   7  10  -5 141416. 5628.64   1
   7  11   5 40546.2 2721.46   1
   8   0  -5 2881.75 610.471   1
   8   0   5 2638.91 619.079   1
   8   1  -5 577.442 311.201   1
   8  -1  -5 665.151 303.223   1
   8  -1   5 424.228 231.857   1
   8   1   5 527.616 264.904   1
   8  -2  -5 19435.9 1731.54   1
   8  -2   5 20756.8 1715.89   1
   8   2   5 23130.0 1827.69   1
   8   2  -5 18398.9 1695.05   1
   8  -3   5 10550.4 1238.55   1
   8   3  -5 10918.9 1255.53   1
   8  -3  -5 10985.2 1294.48   1
   8   3   5 9838.26 1197.26   1
   8  -4   5 8045.97 1046.67   1
   8   4   5 9111.04 1149.16   1
   8  -4  -5 6845.72 992.889   1
   8   4  -5 6189.74 961.993   1
   8   5  -5 1082.34 369.848   1
   8  -5  -5 1144.97 433.750   1
   8  -5   5 2222.28 528.489   1
   8   5   5 2270.26 602.949   1
   8   6  -5 1501.51 515.519   1
   8  -6  -5 1851.36 541.737   1
   8   6   5 1623.17 484.606   1
   8   7   5 8076.15 1086.94   1
   8   7  -5 8421.22 1175.13   1
   8  -7  -5 6213.50 1030.82   1
   8   8  -5 78.3746 99.8152   1
   8   8   5-15.0675 122.942   1
   8   9  -5 308.816 272.368   1
   8   9   5-111.713 103.523   1
   8  10  -5 4369.04 882.671   1
   8  10   5 4521.03 873.834   1
   8  11   5 100.327 41.6909   1
   9   0   5 162665. 5744.93   1
   9   0  -5 149057. 5659.60   1
   9  -1   5 11633.6 1338.13   1
   9   1   5 7915.69 1096.41   1
   9   1  -5 9818.97 1235.87   1
   9  -1  -5 9176.23 1214.44   1
   9  -2   5 143400. 5407.27   1
   9   2   5 136835. 5341.58   1
   9   2  -5 138148. 5373.88   1
   9  -2  -5 156861. 5672.80   1
   9  -3   5 6638.27 1013.28   1
   9  -3  -5 5775.14 950.015   1
   9   3  -5 5989.17 952.530   1
   9   3   5 5347.38 897.255   1
   9  -4   5 145592. 5557.34   1
   9   4   5 151844. 5607.75   1
   9   4  -5 149147. 5675.65   1
   9  -4  -5 150777. 5756.89   1
   9  -5   5 375.317 287.659   1
   9   5  -5 514.551 285.004   1
   9   5   5 1169.27 486.427   1
   9   6   5 186870. 6446.45   1
   9   6  -5 184380. 6611.25   1
   9  -6  -5 172687. 6510.95   1
   9   7  -5 382.947 269.993   1
   9  -7  -5 931.929 387.077   1
   9   7   5 529.692 328.936   1
   9   8   5 176217. 6359.96   1
   9   8  -5 170120. 6418.61   1
   9   9  -5 2530.77 679.411   1
   9   9   5 2638.69 669.499   1
   9  10   5 159292. 6095.50   1
   9  10  -5 150634. 6181.68   1
   9  11   5 15130.6 1702.19   1
  10   0  -5 551.454 311.290   1
  10   0   5 257.824 192.312   1
  10   1  -5 1170.63 407.980   1
  10  -1  -5 759.923 384.659   1
  10  -1   5 728.241 376.169   1
  10   1   5 1122.82 455.682   1
  10   2  -5 2726.90 659.861   1
  10  -2  -5 2859.64 697.289   1
  10  -2   5 2954.41 693.634   1
  10   2   5 2738.85 648.447   1
  10  -3   5 8141.73 1151.68   1
  10   3   5 9305.90 1228.79   1
  10   3  -5 9569.34 1257.60   1
  10  -3  -5 9304.97 1266.42   1
  10   4  -5 364.795 278.774   1
  10  -4  -5 164.067 122.847   1
  10  -4   5 232.587 90.5606   1
  10   4   5 254.497 299.110   1
  10   5  -5-131.297 238.740   1
  10  -5   5 253.800 192.003   1
  10  -5  -5-184.522 168.115   1
  10   5   5 119.814 129.591   1
  10   6   5 16332.4 1660.75   1
  10   6  -5 15665.4 1667.32   1
  10  -6  -5 13715.9 1628.36   1
  10   7  -5 1827.20 533.255   1
  10   7   5 2339.07 630.191   1
  10   8  -5 3439.12 803.478   1
  10   8   5 5803.65 989.975   1
  10   9  -5 3926.65 842.463   1
  10   9   5 3812.12 830.469   1
  11   0   5 342644. 10213.2   1
  11   0  -5 356151. 10366.1   1
  11  -1  -5 134.350 222.555   1
  11  -1   5 399.086 392.366   1
  11   1   5 149.339 188.652   1
  11  -2   5 332390. 9998.07   1
  11   2   5 332802. 9852.21   1
  11   2  -5 325678. 9845.49   1
  11  -2  -5 330216. 10004.4   1
  11   3  -5 4277.63 859.362   1
  11  -3  -5 4282.70 891.284   1
  11  -3   5 4127.37 851.354   1
  11   3   5 3888.06 823.196   1
  11   4   5 130748. 5228.77   1
  11   4  -5 124150. 5166.10   1
  11  -4  -5 133505. 5492.22   1
  11   5   5 7045.41 1086.93   1
  11  -5  -5 6250.35 1088.60   1
  11   5  -5 7611.77 1170.61   1
  11   6  -5 91576.9 4367.56   1
  11  -6  -5 80901.2 4353.75   1
  12  -3   5 2344.02 667.480   1
   0   0  -6 284452. 7652.82   1
   0  -1  -6-85.9579 48.6535   1
   0   1  -6 257.614 154.119   1
   0   2  -6 249407. 6913.45   1
   0  -2  -6 251364. 6963.17   1
   0  -3  -6 197.046 136.214   1
   0   3  -6 102.845 120.686   1
   0   5  -6 72.3742 99.5925   1
   0  -5  -6 69.1539 151.117   1
   0  -7  -6-30.6668 57.3724   1
   0   7  -6 450.606 259.416   1
   0  -9  -6 168.249 178.594   1
   0 -10  -6 666345. 16113.5   1
   1   0  -6 25769.8 1641.28   1
  -1   0  -6 21440.3 1499.65   1
   1  -1  -6 148673. 4955.47   1
   1   1  -6 159577. 5026.53   1
  -1  -1  -6 156692. 4994.93   1
   1   2  -6 30654.4 1825.78   1
  -1   2  -6 31206.1 1834.35   1
   1  -2  -6 30696.6 1837.36   1
  -1  -2  -6 32209.1 1881.02   1
   1  -3  -6 138585. 4635.72   1
  -1   3  -6 138179. 4525.18   1
  -1  -3  -6 141658. 4648.72   1
   1   3  -6 138544. 4593.20   1
   1   4  -6 25421.9 1669.28   1
   1  -4  -6 23930.7 1633.65   1
  -1   4  -6 25932.7 1638.79   1
  -1  -4  -6 26786.9 1722.13   1
   1  -5  -6 41069.6 2230.73   1
  -1   5  -6 39650.5 2122.23   1
  -1  -5  -6 41339.6 2235.36   1
   1   5  -6 42158.0 2225.03   1
   1   6  -6 57624.5 2719.71   1
  -1   6  -6 61127.3 2692.79   1
   1  -6  -6 52618.4 2676.29   1
  -1  -6  -6 61174.5 2823.64   1
   1   7  -6 32165.6 1997.17   1
   1  -7  -6 32863.1 2064.04   1
  -1  -7  -6 33419.8 2070.19   1
  -1   7  -6 34783.8 1958.69   1
  -1   8  -6 7272.40 867.656   1
  -1  -8  -6 8509.52 1030.50   1
   1  -8  -6 6800.30 924.923   1
   1   8  -6 6485.38 858.910   1
  -1  -9  -6 2530.60 565.673   1
   1  -9  -6 2622.66 570.930   1
   1 -10  -6 3442.61 681.051   1
  -1 -10  -6 3869.18 731.729   1
   2  -1   6 385.752 221.202   1
   2   1   6 103.998 151.387   1
   2   1  -6 326.284 218.379   1
   2  -1  -6 249.599 263.569   1
   2  -3  -6 126.897 209.399   1
   2   3   6 524.879 303.826   1
   2   3  -6 293.443 225.441   1
  -2   3  -6 85.8364 210.458   1
   2   5  -6 36.5604 139.677   1
   2   5   6 171.001 169.691   1
  -2   5  -6 94.9807 119.665   1
   2  -5  -6 121.710 156.956   1
   2   6   6 496013. 12668.2   1
   2  -6  -6 501721. 12789.7   1
   2   6  -6 533444. 12869.9   1
   2   7  -6-82.4673 160.251   1
   2   7   6 32.3709 144.181   1
   2  -7  -6 179.689 189.658   1
  -2   7  -6 203.703 173.756   1
   2  -8  -6 304863. 8638.84   1
   2   8   6 298654. 8500.18   1
   2   8  -6 312113. 8516.30   1
   2  -9  -6 768.287 322.579   1
  -2  -9  -6 825.872 326.547   1
  -2 -10  -6 223825. 7121.12   1
   3   0  -6 627919. 14098.6   1
   3   0   6 535551. 13587.6   1
   3   1   6 16347.3 1320.51   1
   3   1  -6 18761.7 1457.19   1
   3  -1  -6 14456.7 1310.60   1
   3  -1   6 14897.1 1270.13   1
   3  -2  -6 27395.4 1852.71   1
   3   2   6 32409.5 1957.42   1
   3  -2   6 31570.9 1865.69   1
   3   3  -6 18185.5 1474.34   1
   3  -3  -6 18849.8 1486.83   1
   3  -3   6 13775.2 1186.28   1
   3   3   6 14166.6 1285.79   1
   3  -4  -6 10572.9 1101.28   1
   3  -4   6 7474.71 865.720   1
   3   4   6 11579.8 1164.28   1
   3   4  -6 9777.04 1065.32   1
   3  -5  -6 95254.1 3823.71   1
   3   5   6 90707.6 3761.24   1
  -3   5  -6 101069. 3738.67   1
   3   5  -6 93243.1 3779.78   1
   3  -6  -6 12427.0 1265.39   1
   3   6   6 12931.7 1259.84   1
  -3   6  -6 12571.9 1176.65   1
   3   6  -6 12583.0 1243.09   1
   3  -7  -6 70999.4 3329.13   1
   3   7   6 74698.8 3358.87   1
  -3   7  -6 72321.8 3096.76   1
   3   7  -6 70456.7 3286.63   1
   3  -8  -6 7474.07 1026.72   1
   3   8   6 7690.56 1018.61   1
   3   8  -6 9833.39 1124.03   1
   3  -9  -6 16867.6 1559.08   1
   3   9  -6 18720.3 1605.07   1
   3  10   6 59731.2 3133.07   1
   3  11   6 551.327 307.570   1
   4   0   6 309733. 8094.33   1
   4   0  -6 274479. 8101.92   1
   4   1   6 12993.4 1233.12   1
   4  -1   6 14204.6 1264.04   1
   4   1  -6 12229.0 1235.29   1
   4  -1  -6 13652.1 1290.90   1
   4  -2  -6 614145. 15052.9   1
   4  -2   6 653179. 14810.9   1
   4   2   6 612605. 14733.4   1
   4   2  -6 619731. 14963.1   1
   4  -3  -6 38747.8 2308.82   1
   4   3   6 40546.9 2232.00   1
   4  -3   6 41573.3 2232.89   1
   4   3  -6 36362.2 2206.71   1
   4  -4  -6 465628. 11905.3   1
   4   4   6 465068. 11660.7   1
   4  -4   6 467541. 11569.4   1
   4   4  -6 460001. 11751.4   1
   4  -5  -6 23443.7 1814.05   1
   4   5   6 25902.7 1831.25   1
   4   5  -6 23642.5 1769.19   1
   4  -6   6 792747. 17501.0   1
   4  -6  -6 775260. 18002.9   1
   4  -7  -6 630.801 312.826   1
  -4   7  -6 468.209 254.235   1
   4   7   6 342.466 236.804   1
   4   7  -6 378.175 245.720   1
   4   8   6 508060. 12537.4   1
   4  -8  -6 493889. 12515.8   1
   4   9   6 11419.1 1303.27   1
   4  -9  -6 9799.72 1218.95   1
   4   9  -6 10253.3 1217.57   1
   4  10   6 508073. 13296.5   1
   4  11   6 22533.7 1946.63   1
   5   0   6 8983.21 1027.29   1
   5   0  -6 10964.2 1163.71   1
   5  -1   6 12143.3 1210.68   1
   5   1  -6 13170.0 1300.80   1
   5  -1  -6 14507.6 1357.69   1
   5   1   6 13583.7 1255.82   1
   5   2   6 28307.9 1932.79   1
   5  -2   6 34931.2 2051.70   1
   5   2  -6 36511.1 2233.77   1
   5  -2  -6 32867.9 2124.12   1
   5  -3   6 29146.3 1888.46   1
   5   3   6 23328.6 1741.97   1
   5   3  -6 26840.6 1921.47   1
   5  -3  -6 26034.5 1883.33   1
   5  -4   6 25300.5 1797.63   1
   5   4   6 29593.2 1966.32   1
   5   4  -6 29372.2 2043.98   1
   5  -4  -6 28144.8 1965.61   1
   5   5   6 252254. 7627.87   1
   5   5  -6 249624. 7760.51   1
   5  -5  -6 252055. 7744.40   1
   5  -6   6 11991.5 1217.75   1
   5   6   6 11321.0 1229.56   1
   5   6  -6 11944.4 1298.69   1
   5  -6  -6 12685.7 1327.41   1
   5  -7  -6 875.876 371.729   1
   5   7   6 927.459 358.589   1
   5   7  -6 1423.21 421.206   1
   5  -8  -6 100.132 189.718   1
   5   8   6 196.043 179.179   1
   5   8  -6-52.8046 97.3935   1
   5   9   6 6.56800 64.3578   1
   5   9  -6 104.340 166.668   1
   5  10   6 8418.67 1169.13   1
   5  11   6 1915.62 569.068   1
   6   0   6 872349. 18940.6   1
   6   0  -6 753724. 18942.9   1
   6   1  -6 3057.82 689.133   1
   6  -1  -6 3067.62 670.477   1
   6  -1   6 2609.00 552.689   1
   6   1   6 2509.88 567.194   1
   6   2   6 847916. 20284.0   1
   6   2  -6 947866. 20911.1   1
   6  -3   6 27370.3 1930.43   1
   6   3   6 26206.8 1863.66   1
   6   3  -6 30024.7 2098.69   1
   6  -3  -6 27157.4 1992.52   1
   6  -4   6 366026. 9687.84   1
   6   4   6 345355. 9599.36   1
   6   4  -6 352441. 9876.29   1
   6  -4  -6 345119. 9798.88   1
   6  -5   6 17920.9 1560.41   1
   6   5   6 15056.9 1446.93   1
   6   5  -6 16780.9 1576.37   1
   6  -5  -6 19741.4 1712.29   1
   6  -6   6 397029. 10717.4   1
   6   6   6 409936. 10864.5   1
   6  -6  -6 400512. 11093.9   1
   6   6  -6 411856. 11090.9   1
   6  -7  -6 1870.57 537.827   1
   6   7   6 2481.01 607.102   1
   6   7  -6 1613.02 480.263   1
   6   8  -6 104152. 4533.26   1
   6  -8  -6 110576. 4762.71   1
   6   8   6 103637. 4430.94   1
   6   9  -6 4111.69 827.953   1
   6   9   6 3293.14 723.762   1
   6  10   6 163135. 6036.03   1
   6  11   6 9336.25 1272.37   1
   7   0   6 3862.11 696.648   1
   7   0  -6 3467.35 712.314   1
   7  -1   6 635.552 283.421   1
   7   1   6 489.400 257.193   1
   7   1  -6 349.288 267.266   1
   7  -1  -6 495.643 278.552   1
   7  -2   6 846.717 323.735   1
   7   2   6 667.986 293.056   1
   7   2  -6 1309.90 400.940   1
   7  -2  -6 928.314 376.280   1
   7  -3   6 10422.3 1203.41   1
   7   3   6 9372.32 1129.87   1
   7   3  -6 9215.52 1168.80   1
   7  -3  -6 7707.53 1089.07   1
   7   4   6 19711.6 1674.63   1
   7  -4   6 20398.6 1704.48   1
   7   4  -6 19884.9 1736.66   1
   7  -4  -6 19838.5 1794.98   1
   7  -5   6 4112.27 758.086   1
   7   5   6 4229.03 799.061   1
   7   5  -6 4233.72 792.515   1
   7  -5  -6 2800.23 655.184   1
   7  -6   6 92244.4 4044.92   1
   7   6   6 93572.0 4094.63   1
   7   6  -6 95117.0 4221.73   1
   7  -6  -6 91444.5 4274.83   1
   7   7   6 23494.0 1912.81   1
   7   7  -6 21351.3 1888.01   1
   7  -7  -6 24543.3 2106.28   1
   7   8  -6 426.871 236.319   1
   7   8   6 264.674 186.811   1
   7  -8  -6 387.529 300.010   1
   7   9   6 5569.84 984.880   1
   7   9  -6 4824.45 913.411   1
   7  10   6 1470.12 481.255   1
   7  11   6 10171.5 1337.09   1
   8   0   6 218060. 6972.35   1
   8   0  -6 214122. 7060.24   1
   8  -1   6 1102.27 441.653   1
   8   1   6 1219.59 450.331   1
   8   1  -6 2107.32 576.513   1
   8  -1  -6 1394.45 429.709   1
   8   2   6 307837. 9097.42   1
   8  -2   6 317126. 9190.52   1
   8   2  -6 320895. 9292.08   1
   8  -2  -6 323899. 9407.42   1
   8  -3   6 2178.76 570.261   1
   8   3  -6 3185.71 700.459   1
   8   3   6 3026.64 667.828   1
   8  -3  -6 2231.25 605.026   1
   8  -4   6 166980. 5971.99   1
   8   4   6 173475. 5989.62   1
   8   4  -6 169306. 6061.37   1
   8  -4  -6 165409. 6139.23   1
   8  -5   6 2890.19 672.651   1
   8   5  -6 4452.76 825.436   1
   8   5   6 2506.95 618.732   1
   8  -5  -6 3933.14 807.693   1
   8   6   6 280005. 8562.98   1
   8  -6  -6 267903. 8753.68   1
   8   7  -6 1230.59 440.983   1
   8   7   6 1033.05 435.400   1
   8  -7  -6 1563.37 533.533   1
   8   8   6 155789. 5817.76   1
   8   8  -6 149854. 5898.50   1
   8   9  -6 3979.95 857.058   1
   8   9   6 3606.75 766.335   1
   8  10   6 163276. 6113.58   1
   8  10  -6 151888. 6197.44   1
   8  11   6 9893.44 1369.25   1
   9   0   6 8164.33 1103.62   1
   9   0  -6 8168.39 1156.49   1
   9   1  -6-71.5005 120.742   1
   9  -1  -6 29.5976 105.482   1
   9  -1   6-36.4660 99.7980   1
   9   1   6-84.4088 201.071   1
   9   2  -6 23.5720 83.4662   1
   9   2   6-277.605 212.863   1
   9   3  -6 4796.85 901.330   1
   9  -3  -6 4472.91 849.679   1
   9  -3   6 3860.58 751.446   1
   9   3   6 4813.42 874.435   1
   9  -4   6 18029.4 1749.16   1
   9   4   6 20527.3 1783.85   1
   9   4  -6 19238.7 1797.77   1
   9  -4  -6 18909.3 1812.58   1
   9   5  -6 269.720 204.190   1
   9  -5   6 619.509 302.878   1
   9  -5  -6 720.170 379.918   1
   9   5   6 476.688 265.472   1
   9   6   6 54511.7 3101.74   1
   9   6  -6 55046.4 3224.34   1
   9  -6  -6 48991.0 3125.39   1
   9   7  -6 3030.41 718.365   1
   9  -7  -6 3500.24 812.693   1
   9   7   6 2769.39 687.076   1
   9   8  -6 541.431 313.509   1
   9   8   6 325.003 226.974   1
   9   9   6 15101.5 1604.76   1
   9   9  -6 15595.0 1712.32   1
   9  10  -6 160.279 146.084   1
   9  10   6 1117.07 449.940   1
  10   0   6 135133. 5460.97   1
  10   0  -6 151441. 5783.75   1
  10   1  -6 2879.48 697.328   1
  10  -1  -6 2117.51 600.468   1
  10  -1   6 1883.60 535.028   1
  10   1   6 2973.41 700.134   1
  10   2   6 154719. 5858.74   1
  10   2  -6 168425. 6068.30   1
  10  -2  -6 158111. 6045.28   1
  10  -3   6 20034.8 1859.55   1
  10   3   6 21288.3 1858.88   1
  10   3  -6 18740.6 1828.44   1
  10  -3  -6 20707.0 1931.86   1
  10  -4   6 120176. 5296.21   1
  10   4   6 152086. 5594.39   1
  10   4  -6 145986. 5632.39   1
  10  -4  -6 127604. 5481.69   1
  10   5   6 9956.88 1264.04   1
  10   5  -6 7792.11 1164.88   1
  10  -5  -6 7793.77 1225.43   1
  10   6   6 178109. 6244.05   1
  10   6  -6 176542. 6405.65   1
  10   7  -6 3416.31 805.358   1
  10   7   6 2934.66 700.205   1
  10   8  -6 103291. 4854.11   1
  11   0  -6 1476.84 479.438   1
  11   0   6 1348.79 468.479   1
  11   1  -6 118.995 180.824   1
  11  -1  -6 136.479 144.975   1
  11   1   6-60.3960 108.486   1
  11   2  -6 173.410 87.0198   1
  11  -2  -6 626.311 350.085   1
  11  -2   6 400.249 297.074   1
  11   2   6 28.7099 121.669   1
  11  -3   6 9359.29 1303.48   1
  11  -3  -6 11785.6 1496.93   1
  11  -4   6 11503.5 1464.95   1
  11  -4  -6 11475.2 1502.82   1
  11  -5  -6 12326.7 1580.54   1
   0   0  -7 98.6717 35.5542   1
   0   1  -7 339.140 222.425   1
   0  -1  -7 432.658 203.826   1
   0  -2  -7-112.920 179.736   1
   0   2  -7 78.1332 82.1605   1
   0  -3  -7 1028.28 322.758   1
   0   3  -7 1209.93 359.041   1
   0  -4  -7 415.741 234.100   1
   0   4  -7-83.9706 153.214   1
   0   5  -7 228769. 6844.55   1
   0  -5  -7 231302. 6965.86   1
   0   6  -7 44.7696 57.8128   1
   0  -6  -7-80.4508 123.705   1
   0   7  -7 4816.48 751.892   1
   0  -7  -7 4443.38 770.242   1
   0   8  -7 1428.80 429.725   1
   0  -8  -7-30.1750 146.468   1
   0  -9  -7 554.305 301.472   1
   0 -10  -7 206.741 240.155   1
   1   0  -7 503601. 12335.3   1
  -1   0  -7 494178. 12267.0   1
   1   1  -7 9509.25 1046.04   1
   1  -1  -7 6716.88 890.808   1
  -1   1  -7 9002.88 997.270   1
  -1  -1  -7 6863.32 903.665   1
   1   2  -7 697787. 15433.0   1
   1  -2  -7 737612. 15571.7   1
  -1   2  -7 727554. 15445.4   1
   1   3  -7 38057.1 2210.49   1
   1  -3  -7 39121.3 2239.26   1
  -1   3  -7 38209.7 2193.74   1
  -1  -3  -7 39323.6 2257.81   1
   1  -4  -7 367621. 9817.83   1
  -1   4  -7 370597. 9721.94   1
   1   4  -7 360837. 9740.63   1
  -1  -4  -7 386301. 9915.85   1
   1   5  -7 47022.5 2531.88   1
   1  -5  -7 46714.7 2547.68   1
  -1   5  -7 47954.7 2474.03   1
  -1  -5  -7 43779.1 2468.81   1
   1   7  -7 66547.6 3177.29   1
   1  -7  -7 66521.5 3237.08   1
  -1  -7  -7 64501.0 3174.47   1
  -1   7  -7 67692.7 3131.56   1
   1  -8  -7 544155. 13784.8   1
  -1  -8  -7 539801. 13739.5   1
   1   8  -7 553951. 13700.7   1
   1  -9  -7 35806.1 2371.98   1
  -1  -9  -7 34616.2 2336.44   1
   1 -10  -7 327465. 9602.47   1
  -1 -10  -7 328066. 9566.08   1
  -2   0  -7 2144.78 471.576   1
   2   0  -7 2677.01 570.416   1
   2   1  -7 16114.4 1412.76   1
   2  -1  -7 17153.2 1422.91   1
  -2   1  -7 15312.6 1358.00   1
  -2  -1  -7 19117.9 1521.08   1
   2   2  -7 15911.9 1390.54   1
   2  -2  -7 16522.1 1404.44   1
  -2   2  -7 15992.7 1376.43   1
   2   3  -7 54127.1 2762.87   1
   2  -3  -7 56163.8 2803.41   1
  -2   3  -7 55764.0 2712.73   1
   2  -4  -7 42052.5 2438.76   1
  -2   4  -7 43574.6 2400.10   1
   2   5  -7 12801.0 1284.89   1
   2  -5  -7 10897.1 1182.75   1
  -2   5  -7 12071.4 1208.69   1
   2   6  -7 20778.3 1693.10   1
  -2   6  -7 18103.0 1493.66   1
  -2  -6  -7 17263.1 1531.52   1
   2  -6  -7 18302.4 1564.66   1
   2  -7  -7 38604.1 2380.39   1
  -2   7  -7 33843.6 2170.05   1
  -2  -7  -7 36907.8 2329.88   1
   2   7  -7 39267.0 2374.18   1
   2  -8  -7 14039.3 1436.18   1
  -2  -8  -7 14373.2 1449.08   1
   2   8  -7 13896.4 1362.60   1
   2  -9  -7-96.4137 22.0659   1
  -2  -9  -7 13.9296 157.457   1
  -2 -10  -7 2425.87 614.011   1
   3   0  -7 977889. 22170.5   1
   3   1  -7 26676.3 1871.37   1
   3  -1  -7 26873.9 1895.41   1
   3   1   7 23076.1 1672.75   1
   3  -1   7 22144.3 1617.44   1
   3   2  -7 712503. 16628.8   1
   3  -2  -7 720091. 16617.3   1
   3  -2   7 700596. 16310.7   1
   3   2   7 662992. 16200.2   1
   3   3  -7 232805. 7043.00   1
   3   3   7 245044. 6989.24   1
   3  -4  -7 229192. 6782.39   1
  -3   4  -7 215896. 6462.09   1
  -3   5  -7 301177. 9049.74   1
   3   5  -7 301761. 9209.50   1
   3   6   7 511413. 12857.4   1
  -3   6  -7 554233. 12954.6   1
   3   6  -7 534892. 13053.5   1
   3  -7  -7 28589.4 2090.84   1
   3   7   7 25839.3 1933.80   1
  -3   7  -7 28088.4 1935.85   1
   3   7  -7 32059.2 2173.52   1
   3   8   7 166413. 5866.89   1
   3  -8  -7 176744. 6196.71   1
   3   8  -7 181956. 6145.11   1
   3   9   7 2109.88 562.805   1
   3  -9  -7 1330.53 473.879   1
   3   9  -7 2201.82 572.291   1
  -3 -10  -7 193447. 6712.51   1
  -3 -11  -7 10190.7 1316.73   1
   4   0   7 20059.2 1602.59   1
   4   0  -7 17312.6 1546.88   1
   4   1  -7 570.334 277.899   1
   4  -1  -7 739.722 272.416   1
   4  -1   7 774.660 346.628   1
   4   1   7 371.665 230.352   1
   4   2  -7 1099.31 375.741   1
   4  -2  -7 682.658 296.517   1
   4  -2   7 450.950 163.409   1
   4   2   7 319.892 213.334   1
   4   3  -7 2136.13 523.571   1
   4  -3  -7 2584.31 574.274   1
   4  -3   7 2253.49 521.637   1
   4   3   7 2643.79 565.239   1
   4  -4  -7 30945.0 2148.82   1
   4  -4   7 31598.7 2010.33   1
   4   4   7 29380.7 2047.08   1
   4   4  -7 31590.1 2110.61   1
   4  -5  -7 43920.8 2646.84   1
   4   5   7 45397.4 2585.64   1
   4   5  -7 41772.0 2527.25   1
   4  -6  -7 70527.4 3520.82   1
   4   6   7 70347.5 3380.20   1
  -4   6  -7 70980.4 3283.22   1
   4   6  -7 68401.0 3384.62   1
   4   7  -7 726.911 332.668   1
   4  -7  -7 685.997 298.688   1
  -4   7  -7 790.011 337.961   1
   4   7   7 1171.87 421.975   1
   4  -8  -7-2.32781 134.038   1
   4   8   7 309.362 196.913   1
   4   8  -7-52.5889 134.811   1
   4  -9  -7 319.352 185.073   1
   4   9   7 786.457 370.851   1
   4   9  -7 607.010 300.332   1
   4  10   7 2672.44 647.816   1
   4  11   7 450.209 283.487   1
   5  -1   7 18811.1 1572.35   1
   5   1   7 18248.2 1558.46   1
   5   1  -7 17493.8 1559.60   1
   5  -1  -7 17680.6 1546.86   1
   5   2  -7 734915. 16670.8   1
   5  -2  -7 704317. 16534.2   1
   5  -3   7 48063.6 2636.41   1
   5   3  -7 49765.3 2732.52   1
   5  -3  -7 44539.8 2615.55   1
   5  -4   7 394979. 11001.6   1
   5   4  -7 400839. 11163.0   1
   5  -4  -7 412815. 11280.7   1
   5  -5   7 5249.83 815.308   1
   5  -5  -7 5440.51 876.997   1
   5   5   7 4713.72 815.387   1
   5   5  -7 6056.52 983.080   1
   5  -6   7 482685. 11813.0   1
   5  -6  -7 482634. 12207.5   1
   5   7   7 42595.8 2648.23   1
   5   7  -7 41263.2 2660.60   1
   5  -7  -7 42384.8 2698.61   1
   5   8  -7 223626. 7267.66   1
   5  -8  -7 232204. 7371.70   1
   5   9   7 7432.49 1109.95   1
   5   9  -7 6119.21 1003.60   1
   5  10   7 162689. 6117.53   1
   5  11   7 792.275 437.269   1
   6   0   7 19076.4 1629.12   1
   6   0  -7 20732.6 1749.76   1
   6   1  -7 2917.40 653.830   1
   6  -1  -7 2752.54 611.767   1
   6  -1   7 3535.13 683.784   1
   6   1   7 2917.45 640.594   1
   6   2  -7 285.687 238.736   1
   6  -2  -7 250.785 292.189   1
   6  -2   7 21.9806 111.166   1
   6   2   7-122.635 107.052   1
   6  -3   7 7012.62 1032.59   1
   6   3   7 10415.3 1190.62   1
   6   3  -7 11584.3 1304.02   1
   6  -3  -7 10579.9 1254.55   1
   6   4   7 8961.24 1124.59   1
   6  -4   7 9755.76 1199.76   1
   6   4  -7 9428.02 1193.06   1
   6  -4  -7 10210.6 1252.48   1
   6  -5  -7 1185.16 375.675   1
   6  -5   7 649.958 320.491   1
   6   5   7 263.270 195.886   1
   6   5  -7 1035.69 420.720   1
   6  -6  -7 1827.10 539.908   1
   6  -6   7 2736.06 627.429   1
   6   6   7 2549.85 634.178   1
   6   6  -7 2266.14 577.436   1
   6   7   7 5846.07 951.720   1
   6   7  -7 4646.25 874.107   1
   6  -7  -7 7322.91 1107.51   1
   6  -8  -7 3501.37 747.799   1
   6   8   7 4077.77 784.274   1
   6   8  -7 3981.98 788.014   1
   6   9   7 300.941 248.702   1
   6   9  -7 275.072 222.386   1
   6  10   7 4224.15 852.365   1
   6  11   7 567.151 310.175   1
   7   0   7 450042. 12146.5   1
   7   0  -7 483869. 12518.1   1
   7  -1   7 6312.17 967.172   1
   7  -1  -7 6958.36 1063.04   1
   7   1  -7 6181.23 965.862   1
   7   1   7 6161.31 942.166   1
   7  -2   7 321403. 8866.43   1
   7   2   7 320125. 8794.91   1
   7   2  -7 308486. 8973.57   1
   7  -3   7 13372.4 1408.44   1
   7   3   7 12898.3 1371.40   1
   7   3  -7 13250.8 1474.57   1
   7  -3  -7 13879.8 1518.72   1
   7  -4   7 145412. 5566.16   1
   7   4   7 161949. 5688.15   1
   7   4  -7 155687. 5816.95   1
   7  -4  -7 159226. 5979.28   1
   7  -5   7 6255.37 980.099   1
   7   5   7 7875.02 1091.24   1
   7   5  -7 6747.93 1055.20   1
   7  -5  -7 6297.26 1033.47   1
   7   6   7 133798. 5160.95   1
   7   6  -7 126543. 5182.82   1
   7  -6  -7 129508. 5385.11   1
   7   7   7 1553.86 488.689   1
   7  -7  -7 778.515 380.796   1
   7   8   7 74203.3 3708.09   1
   7   8  -7 70881.2 3753.62   1
   7  -8  -7 63604.1 3733.35   1
   7   9  -7 2368.35 686.840   1
   7   9   7 2497.25 653.673   1
   7  10   7 76797.0 3979.32   1
   7  11   7 6150.36 1070.31   1
   8   0   7 5975.19 954.246   1
   8   0  -7 6760.35 1054.33   1
   8  -1   7 428.833 234.636   1
   8   1   7 62.2029 113.304   1
   8   1  -7 208.168 246.309   1
   8  -1  -7 177.957 117.167   1
   8  -2   7 7043.87 1032.49   1
   8   2   7 7782.95 1067.64   1
   8   2  -7 9031.35 1206.77   1
   8  -2  -7 6235.36 1033.50   1
   8  -3   7 2190.51 592.175   1
   8   3   7 2934.48 658.674   1
   8   3  -7 4099.00 765.801   1
   8  -3  -7 2813.97 699.072   1
   8  -4   7 50.4103 97.5056   1
   8   4   7 260.675 203.379   1
   8   4  -7 377.277 250.618   1
   8  -4  -7 717.789 382.953   1
   8  -5   7 81.8896 88.1460   1
   8   5   7-85.4592 168.399   1
   8   5  -7 181.845 165.586   1
   8  -5  -7-51.0379 135.554   1
   8   6   7 4885.36 876.260   1
   8   6  -7 5612.58 959.912   1
   8  -6  -7 4192.21 869.999   1
   8   7  -7 189.109 266.584   1
   8   7   7-128.565 236.458   1
   8  -7  -7 248.530 265.641   1
   8   8  -7 3130.34 729.067   1
   8   8   7 3953.85 822.604   1
   8   9  -7 1593.21 552.389   1
   8   9   7 2441.28 661.079   1
   8  10   7 2813.16 705.361   1
   9   0   7 101834. 4480.88   1
   9   0  -7 107264. 4673.20   1
   9  -1   7 4924.28 902.849   1
   9   1   7 3428.63 732.870   1
   9   1  -7 5995.14 997.086   1
   9  -1  -7 5423.61 956.712   1
   9  -2   7 147272. 5753.50   1
   9   2   7 156787. 5809.81   1
   9   2  -7 162059. 5975.56   1
   9  -2  -7 152266. 5899.69   1
   9  -3   7 16787.1 1716.72   1
   9   3   7 17356.6 1672.90   1
   9   3  -7 18755.2 1789.78   1
   9  -3  -7 18291.9 1811.93   1
   9   4  -7 220313. 7491.47   1
   9  -4  -7 228141. 7711.95   1
   9   5  -7 287.329 338.128   1
   9   5   7 294.828 345.575   1
   9  -5  -7 895.995 448.699   1
   9   6   7 330571. 9487.23   1
   9   6  -7 330078. 9735.62   1
   9   7   7 8881.38 1214.53   1
   9   7  -7 8059.33 1224.59   1
   9  -7  -7 7110.93 1187.58   1
   9   8   7 223462. 7406.93   1
   9   8  -7 202743. 7418.88   1
   9   9  -7 176.490 260.822   1
  10   0   7 13626.7 1520.77   1
  10   0  -7 14178.1 1568.82   1
  10   1  -7 2627.45 670.111   1
  10  -1  -7 3887.96 820.191   1
  10  -1   7 3094.54 706.880   1
  10   1   7 3689.94 788.282   1
  10   2  -7-49.5215 63.8102   1
  10  -2  -7-49.1641 242.899   1
  10  -2   7 178.748 256.533   1
  10   2   7 56.7270 136.292   1
  10   3  -7 68.8456 121.014   1
  10  -3  -7-96.5339 270.846   1
  10  -3   7 181.619 144.981   1
  10   3   7-33.6828 179.798   1
  10   4  -7 1788.82 574.312   1
  10  -4  -7 1435.06 504.980   1
  10  -4   7 1181.50 467.320   1
  10   4   7 1476.30 479.994   1
  10   5  -7 1181.31 522.564   1
  10  -5  -7 621.603 357.205   1
  10  -6  -7 1322.07 534.906   1
   0   0  -8 665803. 15869.5   1
   0   1  -8 123.534 138.637   1
   0  -1  -8 37.5541 141.455   1
   0   2  -8 381128. 9976.75   1
   0  -2  -8 356652. 9833.65   1
   0   3  -8-93.2693 80.6697   1
   0  -3  -8-51.2467 175.102   1
   0   4  -8 270266. 8036.93   1
   0  -4  -8 288603. 8226.10   1
   0   5  -8-92.2364 67.1882   1
   0  -5  -8-10.9755 76.9930   1
   0   6  -8 890857. 21331.3   1
   0  -6  -8 964585. 21589.2   1
   0  -7  -8 228.193 263.859   1
   0   7  -8 87.5693 50.8325   1
   0   8  -8 336079. 9854.47   1
   0  -8  -8 377183. 10272.1   1
   0  -9  -8-86.7721 119.923   1
   0 -10  -8 179584. 6535.23   1
   1   0  -8 108915. 4307.99   1
  -1   0  -8 114237. 4337.95   1
   1   1  -8 7801.44 1025.47   1
   1  -1  -8 8774.48 1061.47   1
  -1   1  -8 8051.80 1013.53   1
  -1  -1  -8 7981.60 1017.43   1
   1   2  -8 27574.8 1931.91   1
   1  -2  -8 24496.9 1850.70   1
  -1   2  -8 28308.5 1945.01   1
  -1  -2  -8 24425.4 1821.50   1
   1   3  -8 33907.8 2196.33   1
   1  -3  -8 40321.2 2401.59   1
  -1   3  -8 38053.4 2294.25   1
  -1  -3  -8 38019.7 2317.68   1
   1   4  -8 41053.5 2463.57   1
   1  -4  -8 41731.5 2511.53   1
  -1   4  -8 43250.8 2479.85   1
  -1  -4  -8 43189.6 2497.04   1
   1  -5  -8 14990.1 1478.91   1
  -1   5  -8 18032.2 1542.56   1
   1   5  -8 17645.1 1577.22   1
  -1  -5  -8 17341.0 1562.91   1
  -1   6  -8 258.492 210.910   1
   1  -6  -8-99.7935 234.716   1
  -1  -6  -8 119.121 142.358   1
   1   6  -8 39.5425 117.611   1
  -1   7  -8 520.761 294.850   1
   1  -7  -8 496.499 239.356   1
  -1  -8  -8 187.182 209.254   1
   1   8  -8 386.856 201.781   1
   1  -8  -8-150.045 225.240   1
   1  -9  -8 9555.45 1257.45   1
  -1  -9  -8 9428.59 1252.16   1
   1 -10  -8 13521.1 1540.16   1
  -1 -10  -8 8056.50 1203.90   1
  -2   0  -8 969926. 22012.5   1
  -2   1  -8 1832.46 501.062   1
   2   1  -8 1782.61 513.806   1
   2  -1  -8 2381.66 548.814   1
  -2  -1  -8 1449.64 462.506   1
   2   2  -8 639985. 15420.5   1
  -2   2  -8 622095. 15266.9   1
  -2  -2  -8 642319. 15400.9   1
   2  -2  -8 631932. 15370.2   1
  -2  -3  -8 1423.77 446.561   1
  -2   3  -8 2317.96 560.459   1
   2  -3  -8 2103.03 545.657   1
   2   4  -8 258931. 7721.70   1
   2  -4  -8 255535. 7675.18   1
  -2   4  -8 239437. 7447.02   1
  -2  -4  -8 251318. 7564.04   1
  -2  -5  -8 4752.75 806.628   1
  -2   5  -8 4941.95 825.715   1
   2   5  -8 4334.46 794.125   1
   2  -5  -8 3847.75 725.248   1
   2   6  -8 606889. 15410.0   1
   2  -6  -8 623232. 15381.7   1
  -2   6  -8 627674. 15220.0   1
  -2  -6  -8 623415. 15338.0   1
  -2   7  -8 8126.28 1065.46   1
  -2  -7  -8 7525.26 1082.68   1
   2  -7  -8 10041.3 1229.31   1
   2   7  -8 9153.36 1181.21   1
   2  -8  -8 198707. 6785.24   1
  -2  -8  -8 202816. 6756.65   1
   2   8  -8 189841. 6568.74   1
   2  -9  -8 2440.66 633.474   1
  -2  -9  -8 1425.95 478.562   1
  -2 -10  -8 115291. 4948.94   1
   3   0  -8 144496. 5280.41   1
  -3   1  -8 115.052 190.962   1
   3   1  -8-79.8708 216.599   1
   3  -1  -8 134.241 92.0611   1
   3   2  -8 246151. 7491.63   1
   3  -2  -8 235238. 7341.70   1
   3   2   8 244692. 7220.17   1
  -3   2  -8 231833. 7235.98   1
   3   3  -8 16216.6 1515.50   1
   3  -3  -8 16283.6 1548.37   1
   3   3   8 16760.5 1476.50   1
  -3   3  -8 17677.1 1536.84   1
  -3   4  -8 797.639 342.076   1
   3   4  -8 754.739 344.042   1
   3   4   8 516.807 209.537   1
   3  -4  -8 330.076 184.025   1
   3   5  -8 1208.18 411.186   1
   3   5   8 1308.68 420.754   1
   3  -5  -8 1263.77 399.287   1
  -3   5  -8 2185.88 533.196   1
   3  -6  -8 5936.19 960.312   1
  -3   6  -8 8977.02 1115.80   1
   3   6  -8 7423.98 1059.65   1
   3   7  -8 386.875 236.001   1
  -3  -7  -8 591.173 330.591   1
   3  -7  -8 100.023 162.470   1
  -3   7  -8 278.797 198.652   1
   3  -8  -8 99415.3 4491.87   1
  -3  -8  -8 96166.2 4291.53   1
   3   8  -8 98944.6 4377.21   1
   3  -9  -8 22320.6 2005.04   1
  -3  -9  -8 21052.9 1892.82   1
  -3 -10  -8 6861.11 1100.60   1
  -3 -11  -8 7663.67 1182.14   1
   4   0  -8 493492. 13021.0   1
   4   0   8 515963. 12817.0   1
   4   1  -8 2914.37 645.351   1
   4  -1  -8 3551.79 717.388   1
   4  -1   8 4230.12 733.389   1
   4   1   8 3428.71 675.387   1
   4  -2  -8 419384. 11817.4   1
   4  -2   8 406136. 11391.7   1
   4   2  -8 432018. 11802.9   1
   4   3  -8 127.358 144.326   1
   4  -3  -8 155.658 227.334   1
   4   3   8 109.470 212.196   1
   4   4   8 176755. 6024.71   1
  -4   4  -8 177202. 6115.93   1
   4   4  -8 182500. 6274.94   1
   4  -5  -8 23964.0 1981.33   1
   4   5   8 22660.4 1827.62   1
  -4   5  -8 26384.4 1994.57   1
   4   5  -8 25186.9 1983.45   1
   4  -6  -8 540521. 14199.8   1
   4   6   8 521258. 13720.6   1
   4   6  -8 534744. 14044.2   1
   4  -7  -8 4708.32 899.751   1
   4   7   8 3475.59 735.472   1
   4   7  -8 5123.24 901.226   1
   4  -8  -8 243437. 8131.71   1
   4   8   8 247291. 7804.77   1
   4   8  -8 240359. 7973.65   1
   4  -9  -8 3241.03 749.431   1
   4   9   8 2481.57 653.054   1
  -4 -11  -8 545.203 260.708   1
   5   0   8 44961.8 2651.95   1
   5   0  -8 42981.1 2633.73   1
   5   1  -8 766.113 347.269   1
   5  -1   8 772.704 369.634   1
   5   1   8 285.788 92.6892   1
   5  -2   8 10757.6 1223.00   1
   5   2   8 11214.1 1291.54   1
   5   2  -8 10073.1 1227.48   1
   5  -2  -8 13705.1 1424.75   1
   5   3   8 26485.2 1983.07   1
   5  -3   8 28355.4 2043.42   1
   5   3  -8 22499.5 1895.64   1
   5  -3  -8 23557.3 1928.07   1
   5  -4   8 6493.52 965.898   1
   5   4   8 7670.38 1074.36   1
   5   4  -8 7396.34 1084.14   1
   5  -4  -8 7270.05 1058.73   1
   5   5   8 7056.44 1038.88   1
   5  -5  -8 4495.45 863.504   1
   5   5  -8 6615.92 1021.69   1
   5   6  -8 426.941 232.746   1
   5  -6  -8 1684.22 524.106   1
   5   6   8 1134.44 452.134   1
  -5   6  -8 1181.96 395.689   1
   5   7   8 13451.1 1462.83   1
   5   7  -8 12005.7 1450.02   1
   5  -7  -8 12320.5 1466.15   1
   5  -8  -8 1408.08 475.876   1
   5   8   8 1568.80 511.722   1
   5   8  -8 2670.02 677.640   1
   5   9   8 326.074 222.794   1
   5   9  -8-126.354 166.916   1
   5  10   8 4398.80 869.116   1
   5  11   8 5277.53 961.293   1
   6   0   8 344018. 9712.58   1
   6   0  -8 340981. 9850.93   1
   6  -1   8 16150.6 1559.48   1
   6   1   8 15915.6 1568.83   1
   6   1  -8 14911.1 1551.89   1
   6  -1  -8 18461.7 1701.04   1
   6  -2   8 411795. 11106.5   1
   6   2   8 402086. 10963.7   1
   6   2  -8 409554. 11183.5   1
   6  -2  -8 384657. 11042.1   1
   6  -3   8 22822.6 1905.50   1
   6   3   8 19914.2 1788.84   1
   6   3  -8 21619.3 1910.88   1
   6  -3  -8 26282.6 2068.29   1
   6  -4   8 147954. 5594.82   1
   6   4   8 153444. 5611.39   1
   6   4  -8 151810. 5789.70   1
   6  -4  -8 146257. 5654.97   1
   6  -5  -8 1209.90 465.675   1
   6  -5   8 691.228 357.339   1
   6   5   8 814.236 361.074   1
   6   5  -8 1011.12 441.376   1
   6   6   8 321392. 9361.35   1
   6  -6  -8 325084. 9589.12   1
   6   7   8 12624.7 1451.82   1
   6   7  -8 12927.1 1515.48   1
   6  -7  -8 11909.5 1479.60   1
   6   8   8 99870.3 4596.88   1
   6   8  -8 103434. 4733.96   1
   6  -8  -8 101664. 4772.69   1
   6   9   8 302.757 259.362   1
   6   9  -8 611.534 360.388   1
   6  10   8 113829. 5094.67   1
   6  11   8 7712.43 1206.45   1
   7   0  -8 28.2908 120.339   1
   7   0   8 12.4669 88.6874   1
   7  -1  -8-34.5635 182.920   1
   7  -1   8-17.1308 88.7329   1
   7   1   8 281.839 319.171   1
   7   1  -8 164.307 248.348   1
   7  -2   8 6404.82 1010.14   1
   7   2   8 6945.14 1044.69   1
   7   2  -8 6705.95 1072.56   1
   7  -2  -8 7834.75 1146.27   1
   7  -3   8 20039.9 1819.52   1
   7   3   8 17832.8 1695.85   1
   7   3  -8 21381.8 1935.97   1
   7  -3  -8 19849.7 1877.58   1
   7  -4   8 9563.03 1289.30   1
   7   4   8 8605.71 1169.26   1
   7   4  -8 9408.78 1266.25   1
   7  -4  -8 11883.7 1451.66   1
   7  -5  -8 5589.00 1021.00   1
   7  -5   8 4602.37 887.474   1
   7   5   8 4844.32 872.225   1
   7   5  -8 4656.62 894.963   1
   7  -6  -8 741.948 392.927   1
   7   6   8 867.708 375.119   1
   7   6  -8 1039.37 415.400   1
   7   7   8 183.061 110.489   1
   7   7  -8 460.428 310.275   1
   7  -7  -8 730.562 356.880   1
   7   8   8 8013.20 1178.93   1
   7   8  -8 6175.42 1046.79   1
   7  -8  -8 7598.61 1219.98   1
   7   9  -8 22629.6 2120.23   1
   7   9   8 25594.2 2212.39   1
   7  10   8 3083.29 772.239   1
   8   0   8 109079. 4741.94   1
   8   0  -8 120202. 5080.26   1
   8  -1   8 1962.92 559.437   1
   8   1   8 2096.09 611.727   1
   8   1  -8 1822.18 592.040   1
   8  -1  -8 2574.95 646.475   1
   8   2   8 216256. 7145.52   1
   8   2  -8 227363. 7453.51   1
   8  -2  -8 215133. 7374.92   1
   8  -3   8 95.9760 162.221   1
   8   3   8 323.031 291.352   1
   8   3  -8 317.372 345.519   1
   8  -3  -8 70.1472 164.416   1
   8   4   8 133935. 5204.42   1
   8   4  -8 134627. 5351.44   1
   8  -4  -8 131293. 5485.93   1
   8  -5   8 19588.9 1907.28   1
   8   5   8 22575.0 1973.31   1
   8   5  -8 22473.3 2006.41   1
   8  -5  -8 21800.9 2054.33   1
   8   6  -8 247936. 8185.11   1
   8  -6  -8 230531. 8296.33   1
   8   7   8 1395.22 500.118   1
   8   7  -8 767.306 335.533   1
   8  -7  -8 1380.75 545.427   1
   8   8   8 126399. 5179.91   1
   8   8  -8 101992. 4903.80   1
   8   9  -8 637.856 341.457   1
   9   0   8 137.684 227.403   1
   9   0  -8-135.229 192.336   1
   9  -1   8 4550.67 882.429   1
   9   1   8 3509.06 787.840   1
   9   1  -8 4674.25 906.163   1
   9  -1  -8 5129.60 948.307   1
   9  -2   8 9083.77 1268.50   1
   9   2   8 12500.5 1440.22   1
   9   2  -8 14957.9 1628.37   1
   9  -2  -8 11623.6 1436.41   1
   9  -3   8 11436.2 1421.60   1
   9   3  -8 12514.1 1487.66   1
   9  -3  -8 11671.6 1467.98   1
   9  -4   8 3837.16 836.630   1
   9   4   8 4597.24 866.023   1
   9   4  -8 5436.19 936.428   1
   9  -4  -8 5110.84 960.371   1
   9   5   8 3534.10 777.378   1
   9   5  -8 2897.69 724.753   1
   9  -5  -8 2613.64 713.017   1
   9   6  -8 14.9131 60.4985   1
   9  -6  -8-61.7597 199.859   1
  10  -1   8 1446.93 505.320   1
  10  -2   8 112957. 5010.77   1
  10  -3   8 4053.29 872.960   1
   0   0  -9-57.0402 45.1668   1
   0   1  -9 67141.3 3342.19   1
   0  -1  -9 72872.0 3432.25   1
   0   2  -9-127.969 224.506   1
   0  -2  -9 158.340 125.337   1
   0   3  -9 56830.6 3006.49   1
   0  -3  -9 54014.8 2960.32   1
   0   4  -9-191.140 180.830   1
   0  -4  -9 361.887 273.383   1
   0   5  -9 14846.6 1495.99   1
   0  -5  -9 16563.5 1579.53   1
   0  -6  -9-255.485 237.667   1
   0   6  -9 123.322 192.593   1
   0   7  -9 8782.43 1171.73   1
   0  -7  -9 10924.5 1319.47   1
   0  -8  -9-105.642 173.907   1
   0  -9  -9 747.675 365.144   1
   0 -10  -9 267.739 241.847   1
   1   0  -9 643883. 15602.3   1
  -1   0  -9 623606. 15531.0   1
  -1  -1  -9 1667.43 491.845   1
   1   1  -9 1633.53 485.481   1
   1  -1  -9 1550.76 489.597   1
  -1   1  -9 2093.02 535.437   1
   1   2  -9 579136. 13992.9   1
   1  -2  -9 548464. 13861.8   1
  -1   2  -9 554455. 13858.7   1
  -1  -3  -9 307.273 270.708   1
   1  -3  -9 570.815 323.261   1
  -1   3  -9 230.089 200.893   1
   1   3  -9 139.685 195.557   1
   1   4  -9 149713. 5559.13   1
   1  -4  -9 157629. 5646.47   1
  -1   4  -9 147755. 5509.87   1
  -1  -4  -9 155874. 5599.23   1
  -1  -5  -9 2303.30 588.424   1
   1  -5  -9 2222.97 570.727   1
  -1   5  -9 2091.08 541.309   1
   1   5  -9 1992.31 556.442   1
   1   6  -9 372977. 10652.0   1
  -1   6  -9 391485. 10680.8   1
   1  -6  -9 375399. 10640.9   1
  -1  -6  -9 370893. 10596.1   1
   1   7  -9 7257.23 1076.55   1
  -1   7  -9 7465.63 1075.74   1
   1  -7  -9 7134.00 1071.21   1
  -1  -7  -9 6237.06 1011.59   1
   1  -8  -9 81296.1 4068.30   1
  -1  -8  -9 87598.3 4157.75   1
   1  -9  -9 11791.0 1458.40   1
  -1  -9  -9 12376.2 1486.20   1
   1 -10  -9 123541. 5335.77   1
  -1 -10  -9 120382. 5227.39   1
   2   0  -9 18466.9 1654.51   1
  -2   0  -9 19987.7 1708.22   1
  -2   1  -9 3092.22 631.036   1
   2   1  -9 2260.71 543.352   1
  -2  -1  -9 3157.15 661.434   1
   2  -1  -9 1946.81 521.319   1
   2   2  -9 14160.9 1441.74   1
   2  -2  -9 14076.8 1427.02   1
  -2   2  -9 12194.9 1340.64   1
  -2  -2  -9 12817.0 1360.05   1
   2   3  -9 22718.3 1868.35   1
   2  -3  -9 21282.2 1789.48   1
  -2   3  -9 22732.9 1869.71   1
  -2  -3  -9 22318.7 1844.92   1
  -2  -4  -9 3265.27 721.901   1
   2   4  -9 2884.05 636.306   1
  -2   4  -9 3169.95 705.438   1
   2  -4  -9 2338.73 609.297   1
   2   5  -9 63938.7 3392.33   1
   2  -5  -9 62003.9 3299.03   1
  -2   5  -9 69074.1 3403.79   1
  -2  -5  -9 62465.6 3300.50   1
  -2   6  -9 2251.51 598.555   1
   2   6  -9 4444.08 827.912   1
  -2  -6  -9 2897.96 681.412   1
   2  -6  -9 2891.68 674.050   1
  -2   7  -9 518.238 206.398   1
   2   7  -9 1393.99 465.530   1
  -2  -7  -9 1796.75 550.803   1
   2  -7  -9 1332.83 432.729   1
   2  -8  -9 7621.30 1149.92   1
  -2  -8  -9 5919.20 995.743   1
   2   8  -9 5797.69 1001.22   1
   2  -9  -9 6811.51 1094.27   1
  -2  -9  -9 5451.86 983.158   1
  -2 -10  -9 1714.01 589.047   1
   3   0  -9 434871. 11542.1   1
  -3   0  -9 417786. 11363.9   1
   3   1  -9 20071.8 1775.87   1
   3  -1  -9 19796.7 1753.27   1
  -3   1  -9 18100.2 1641.14   1
  -3  -1  -9 19564.7 1694.42   1
   3   2  -9 494477. 12718.5   1
   3  -2  -9 467872. 12537.2   1
  -3   2  -9 465814. 12437.0   1
  -3  -2  -9 473019. 12424.2   1
   3   3  -9 55169.8 3051.48   1
   3  -3  -9 49116.8 2889.18   1
  -3   3  -9 45179.1 2732.68   1
  -3  -3  -9 48116.9 2809.99   1
   3   4  -9 242487. 7705.80   1
   3  -4  -9 231402. 7550.77   1
  -3   4  -9 242570. 7565.24   1
  -3  -4  -9 223092. 7362.64   1
   3  -5  -9 18977.8 1770.86   1
  -3   5  -9 21392.3 1871.92   1
  -3  -5  -9 21021.6 1821.18   1
   3   5  -9 19068.0 1793.12   1
   3  -6  -9 548875. 14256.6   1
  -3   6  -9 522683. 13901.7   1
  -3  -6  -9 528787. 13885.9   1
   3   6  -9 555488. 14189.2   1
   3  -7  -9 23374.4 2050.89   1
  -3  -7  -9 19075.9 1821.17   1
   3   7  -9 24617.1 2044.33   1
   3  -8  -9 175072. 6609.92   1
  -3  -8  -9 164320. 6296.97   1
  -3  -9  -9 1701.48 548.220   1
   3  -9  -9 1467.85 548.178   1
  -3 -10  -9 139934. 5731.51   1
  -3 -11  -9 2114.75 641.443   1
   4   0  -9 65730.8 3452.04   1
   4  -1  -9 7254.57 1067.04   1
  -4   1  -9 7099.98 1035.63   1
   4   1  -9 8156.34 1098.10   1
   4   2  -9 2620.87 624.456   1
   4  -2  -9 2095.05 570.511   1
   4   2   9 2078.17 546.438   1
  -4   2  -9 2129.62 580.257   1
   4  -3  -9 9585.78 1275.19   1
   4   3   9 9533.13 1158.55   1
  -4   3  -9 11792.7 1353.51   1
   4   3  -9 10491.1 1281.10   1
   4   4  -9-106.587 163.247   1
   4  -4  -9-26.8463 181.480   1
   4   4   9 105.209 175.778   1
  -4   4  -9 147.484 190.562   1
   4  -5  -9 392.635 263.693   1
   4   5   9 217.116 94.7621   1
  -4   5  -9 241.181 180.391   1
   4  -6  -9 14268.9 1584.19   1
  -4   6  -9 13306.8 1473.80   1
   4   6  -9 13192.9 1510.06   1
   4  -7  -9 12672.6 1543.98   1
  -4  -7  -9 13144.8 1473.36   1
   4   7  -9 15731.5 1630.77   1
   4   8  -9 1706.82 529.450   1
   4  -8  -9 1133.95 472.490   1
  -4  -8  -9 1608.72 541.935   1
   4  -9  -9 1980.08 609.469   1
  -4  -9  -9 2402.31 652.977   1
  -4 -10  -9 16164.0 1748.66   1
  -4 -11  -9 4193.63 912.608   1
   5   0   9 83147.7 3823.10   1
   5   0  -9 78019.5 3834.03   1
   5   1  -9 1545.07 492.084   1
   5  -1  -9 1697.23 532.103   1
   5  -1   9 1487.94 477.103   1
   5   1   9 1217.76 427.702   1
   5  -2   9 143987. 5505.24   1
   5   2   9 161048. 5729.60   1
   5   2  -9 159990. 5843.63   1
   5  -2  -9 146244. 5689.33   1
   5   3  -9 855.962 295.858   1
   5  -3  -9 1422.12 494.486   1
   5   3   9 1881.02 550.528   1
   5   4   9 105382. 4540.68   1
  -5   4  -9 115833. 4774.34   1
   5   4  -9 114796. 4851.41   1
   5  -4  -9 108606. 4763.24   1
   5   5   9 12659.7 1418.64   1
  -5   5  -9 12083.5 1412.25   1
   5   5  -9 11930.3 1430.09   1
   5  -5  -9 10360.7 1362.55   1
   5   6   9 321570. 9583.21   1
  -5   6  -9 308822. 9645.38   1
   5   6  -9 346366. 10095.1   1
   5  -6  -9 346078. 10149.0   1
   5   7  -9 768.362 413.954   1
   5  -7  -9 652.627 394.537   1
   5   7   9 786.751 364.382   1
   5   8   9 184848. 6470.45   1
   5   8  -9 186467. 6861.36   1
   5   9   9 1271.53 452.195   1
  -5 -10  -9 147935. 6012.21   1
   6   0   9 7499.12 1092.95   1
   6   0  -9 8815.92 1202.78   1
   6   1  -9 549.893 302.154   1
   6  -1  -9 487.192 352.925   1
   6  -1   9 463.549 251.814   1
   6   1   9 297.432 234.491   1
   6  -2   9 17851.8 1700.82   1
   6   2   9 16443.2 1640.43   1
   6   2  -9 16033.0 1641.67   1
   6  -2  -9 14655.8 1590.17   1
   6   3  -9 2625.98 666.345   1
   6  -3  -9 3855.84 813.309   1
   6  -3   9 2799.20 656.404   1
   6   3   9 2022.43 580.688   1
   6   4  -9 510.210 391.991   1
   6  -4  -9 798.392 392.585   1
   6  -4   9 290.324 240.158   1
   6   4   9 114.818 40.6436   1
   6   5   9 23506.5 1999.48   1
  -6   5  -9 21944.8 1965.17   1
   6   5  -9 25761.7 2189.66   1
   6  -5  -9 21900.2 2021.79   1
   6   6   9 33651.2 2403.98   1
   6   6  -9 33108.2 2494.65   1
   6  -6  -9 29773.0 2404.04   1
   6  -7  -9 491.643 319.575   1
   6   7   9 709.455 352.072   1
   6   7  -9 566.126 349.318   1
   6   8  -9 14652.4 1673.12   1
   6  -8  -9 13569.3 1658.85   1
   6   9   9 1034.15 404.326   1
   6  10   9 515.614 320.544   1
   7   0   9 209444. 7184.58   1
   7   0  -9 212186. 7349.05   1
   7   1  -9 464.456 282.297   1
   7  -1  -9 579.463 385.288   1
   7  -1   9 765.729 338.379   1
   7   1   9 823.661 348.378   1
   7   2   9 280526. 8550.30   1
   7   2  -9 278972. 8713.36   1
   7  -2  -9 293015. 8933.14   1
   7  -3  -9 694.670 332.943   1
   7  -3   9 884.396 393.045   1
   7   3   9 705.802 363.370   1
   7   3  -9 1342.14 486.478   1
   7  -4   9 164890. 6331.91   1
   7   4   9 215547. 6843.61   1
   7   4  -9 137583. 6056.61   1
   7  -4  -9 209150. 7084.80   1
   7  -5   9 19862.3 1894.42   1
   7   5   9 24692.5 2066.64   1
   7   5  -9 21415.2 1998.83   1
   7  -5  -9 22044.7 2094.25   1
   7   6  -9 252228. 8402.44   1
   7  -6  -9 235611. 8416.05   1
   7   7   9 6268.08 1048.90   1
   7   7  -9 6480.15 1096.79   1
   7  -7  -9 6424.73 1144.87   1
   7   8  -9 120511. 5420.23   1
   7  -8  -9 132040. 5889.81   1
   8   0   9 10012.4 1307.94   1
   8   0  -9 8097.50 1220.78   1
   8  -1   9 1539.95 515.842   1
   8   1   9 1835.05 586.971   1
   8   1  -9 1349.67 500.584   1
   8  -1  -9 1558.16 529.887   1
   8   2   9 6581.11 1033.47   1
   8  -2   9 4669.90 925.720   1
   8   2  -9 5839.72 1019.50   1
   8  -2  -9 5593.63 1012.17   1
   8  -3   9 3097.75 738.155   1
   8   3   9 3593.73 801.200   1
   8   3  -9 4071.56 851.249   1
   8  -3  -9 3987.20 864.845   1
   8  -4   9 4991.81 980.373   1
   8   4   9 5976.20 977.496   1
   8   4  -9 6907.93 1078.65   1
   8  -4  -9 7207.69 1191.02   1
   8   5  -9 441.856 221.468   1
   8  -5  -9-8.78309 131.254   1
   8   6  -9 1607.67 555.993   1
   8  -6  -9 1145.35 505.753   1
   8  -7  -9 618.635 392.932   1
   9  -1   9 265.790 226.142   1
   9  -2   9 90477.9 4428.14   1
   9  -3   9 83.4676 249.944   1
   0   0 -10 453639. 12148.6   1
   0   1 -10 359.811 319.980   1
   0  -1 -10 60.9170 105.071   1
   0   2 -10 605953. 14823.3   1
   0  -2 -10 546886. 14478.3   1
   0   3 -10-96.2034 131.497   1
   0  -3 -10 178.274 236.261   1
   0   4 -10 202274. 6880.94   1
   0  -4 -10 204475. 6890.93   1
   0  -5 -10 365.040 299.800   1
   0   5 -10-50.7676 165.062   1
   0   6 -10 191769. 6892.91   1
   0  -6 -10 209407. 7091.98   1
   0  -7 -10 1.26698 243.291   1
   0   7 -10 254.680 209.152   1
   0  -8 -10 73882.9 3887.57   1
   0  -9 -10 70.2339 152.986   1
   0 -10 -10 137161. 5824.33   1
   1   0 -10 11652.6 1358.29   1
  -1   0 -10 15408.6 1545.65   1
   1  -1 -10 1762.55 528.269   1
  -1   1 -10 2575.96 638.711   1
  -1  -1 -10 2742.99 619.705   1
   1   1 -10 2476.51 612.581   1
   1  -2 -10-71.1867 87.9879   1
  -1   2 -10-230.102 229.853   1
  -1  -2 -10-54.1952 133.576   1
   1   2 -10-59.5082 190.443   1
   1  -3 -10 133.065 183.311   1
  -1   3 -10 80.1139 249.748   1
  -1  -3 -10 88.1854 187.528   1
   1   3 -10 105.994 141.161   1
   1  -4 -10 58.5722 246.861   1
  -1   4 -10 399.627 230.413   1
   1   4 -10-43.5717 116.601   1
  -1  -4 -10 131.508 207.010   1
   1   5 -10 56111.7 3188.17   1
   1  -5 -10 50843.8 3026.44   1
  -1   5 -10 45678.3 2899.37   1
  -1  -5 -10 45536.0 2840.45   1
   1   6 -10 47919.4 2998.69   1
  -1   6 -10 48256.2 2973.98   1
   1  -6 -10 47955.5 2965.61   1
  -1  -6 -10 45689.3 2890.45   1
   1   7 -10 11571.1 1437.93   1
  -1   7 -10 12718.6 1515.91   1
   1  -7 -10 13555.5 1541.56   1
  -1  -7 -10 12687.0 1471.22   1
   1  -8 -10 15859.3 1738.81   1
  -1  -8 -10 15036.4 1650.82   1
  -1  -9 -10 6648.10 1097.35   1
   1  -9 -10 3790.67 814.766   1
  -1 -10 -10 4330.62 924.751   1
   1 -10 -10 4868.03 992.489   1
   2   0 -10 148646. 5539.23   1
  -2   0 -10 145648. 5515.61   1
  -2   1 -10 291.309 268.504   1
  -2  -1 -10-161.936 71.5729   1
   2   1 -10 34.1483 97.4173   1
   2  -1 -10 194.511 198.239   1
   2   2 -10 257600. 8178.65   1
   2  -2 -10 248362. 8061.71   1
  -2   2 -10 270886. 8248.98   1
  -2  -2 -10 267682. 8190.04   1
   2   3 -10 8493.68 1163.86   1
   2  -3 -10 7641.73 1121.89   1
  -2   3 -10 7896.34 1110.36   1
  -2  -3 -10 7527.34 1065.87   1
   2  -4 -10 171570. 6281.66   1
  -2   4 -10 165179. 6139.21   1
  -2  -4 -10 168605. 6158.34   1
  -2  -5 -10 206.429 260.832   1
  -2   5 -10 186.518 221.521   1
   2   5 -10 101.598 113.131   1
   2  -5 -10-34.6275 160.452   1
   2   6 -10 276944. 8776.83   1
   2  -6 -10 266959. 8616.92   1
  -2   6 -10 266417. 8522.01   1
  -2  -6 -10 273686. 8551.91   1
  -2  -7 -10 1186.22 490.770   1
   2   7 -10 868.018 364.576   1
   2  -7 -10 739.222 352.280   1
   2  -8 -10 138781. 5770.52   1
  -2  -8 -10 145539. 5807.19   1
   2  -9 -10 933.089 416.072   1
  -2  -9 -10 743.956 369.524   1
  -2 -10 -10 158974. 6372.40   1
   3   0 -10 12133.5 1408.06   1
  -3   0 -10 12416.6 1386.83   1
  -3  -1 -10 2774.56 634.953   1
   3   1 -10 3507.99 735.441   1
   3  -1 -10 2239.62 584.517   1
  -3   1 -10 2327.23 583.436   1
  -3  -2 -10 630.143 288.337   1
  -3   2 -10 537.868 274.248   1
   3   2 -10 1015.00 373.491   1
   3  -2 -10 928.662 425.818   1
  -3   3 -10 307.457 247.610   1
  -3  -3 -10 307.137 279.415   1
   3   3 -10 373.732 273.739   1
   3  -3 -10 718.644 341.970   1
   3   4 -10 24657.6 2134.11   1
   3  -4 -10 28914.4 2291.92   1
  -3   4 -10 29660.2 2272.04   1
  -3  -4 -10 32826.0 2348.45   1
   3  -5 -10 40071.1 2722.17   1
  -3   5 -10 34963.3 2495.85   1
  -3  -5 -10 39977.3 2636.47   1
   3   5 -10 44834.5 2877.44   1
   3  -6 -10 8427.54 1227.81   1
  -3   6 -10 9192.50 1239.51   1
  -3  -6 -10 8787.04 1226.38   1
   3   6 -10 8888.63 1247.09   1
   3   7 -10-37.3930 201.072   1
   3  -7 -10-171.053 153.806   1
  -3  -7 -10-45.6431 70.5178   1
   3  -8 -10 3982.65 868.758   1
  -3  -8 -10 3806.79 811.676   1
  -3  -9 -10 356.669 334.566   1
   3  -9 -10 513.042 303.469   1
  -3 -10 -10 142.630 190.118   1
   4   0 -10 193991. 6796.78   1
  -4   0 -10 185479. 6550.43   1
  -4  -1 -10 236.331 287.324   1
   4   1 -10 69.4860 95.6048   1
   4  -1 -10 826.530 403.667   1
  -4   1 -10 314.490 281.818   1
   4  -2 -10 311383. 9204.69   1
  -4  -2 -10 293256. 8819.96   1
   4   2 -10 289806. 8967.99   1
   4  -3 -10 10575.0 1357.39   1
  -4   3 -10 9308.59 1238.17   1
  -4  -3 -10 9328.67 1241.63   1
   4   3 -10 11412.0 1385.59   1
   4  -4 -10 217354. 7405.91   1
  -4   4 -10 207495. 7155.50   1
  -4  -4 -10 194783. 6920.43   1
   4   4 -10 214652. 7261.41   1
   4   5 -10 650.303 351.846   1
  -4   5 -10 247.690 265.572   1
  -4  -5 -10 519.410 306.381   1
   4  -5 -10 791.346 390.796   1
   4  -6 -10 246661. 8059.23   1
  -4   6 -10 203347. 7446.72   1
  -4  -6 -10 228094. 7569.33   1
   4   6 -10 222355. 7649.21   1
   4   7 -10 160.102 236.466   1
   4  -7 -10 372.413 307.075   1
  -4  -7 -10 482.893 306.559   1
  -4  -8 -10 110457. 5007.69   1
   4   8 -10 118239. 5344.73   1
   4  -8 -10 123467. 5466.15   1
  -4  -9 -10 4327.67 907.175   1
   4  -9 -10 4744.84 993.695   1
  -4 -10 -10 117475. 5329.57   1
   5   0 -10-222.879 257.654   1
  -5   0 -10 156.000 159.410   1
  -5   1 -10 21009.9 1896.17   1
  -5  -1 -10 22308.2 1922.52   1
   5   1 -10 24553.8 2018.59   1
   5  -1 -10 22694.4 1997.52   1
   5   2 -10 376.170 327.007   1
   5  -2 -10 181.639 185.178   1
  -5   2 -10 196.167 214.885   1
  -5   3 -10 48336.6 3006.11   1
   5   3 -10 56227.0 3255.38   1
   5  -3 -10 52506.2 3195.80   1
   5   4 -10 3411.70 761.390   1
   5  -4 -10 4168.08 852.254   1
  -5   4 -10 3275.16 726.498   1
  -5   5 -10 19194.5 1862.07   1
  -5  -5 -10 18497.7 1805.77   1
   5   5 -10 21448.6 1966.10   1
   5  -5 -10 18069.5 1876.43   1
  -5  -6 -10 30638.0 2364.73   1
   5   6 -10 29845.8 2402.35   1
   5  -6 -10 28317.8 2371.22   1
  -5  -7 -10 15127.1 1657.19   1
   5   7 -10 18818.9 1936.95   1
   5  -7 -10 18156.9 1918.38   1
   5  -8 -10 2000.38 624.425   1
  -5  -8 -10 2706.75 704.619   1
   5   8 -10 2154.04 663.302   1
   6   0  10 96743.0 4382.09   1
   6   0 -10 95024.7 4410.54   1
   6   1 -10 2346.75 619.340   1
   6  -1 -10 2066.72 579.510   1
   6  -1  10 2883.94 699.115   1
   6   1  10 2916.28 696.633   1
   6   2  10 170268. 6298.22   1
   6   2 -10 187215. 6664.81   1
   6  -2 -10 184280. 6647.28   1
   6   3 -10 5936.39 1027.71   1
   6  -3 -10 5597.15 1001.84   1
  -6   3 -10 5930.16 1007.42   1
   6   3  10 4741.96 882.659   1
   6   4  10 154063. 5665.07   1
  -6   4 -10 136745. 5649.12   1
   6   4 -10 155496. 5958.80   1
   6   5 -10 4791.42 938.749   1
   6  -5 -10 5336.12 996.493   1
   6   5  10 4030.25 830.587   1
  -6   5 -10 4404.51 918.115   1
   6   6  10 154997. 6006.08   1
   6   6 -10 165125. 6415.38   1
   6  -6 -10 176919. 6644.83   1
   6  -7 -10 912.713 460.847   1
   6   7 -10 1322.48 495.299   1
   7   0  10 34803.6 2540.92   1
   7   0 -10 41354.5 2822.51   1
   7   1 -10 118.073 183.539   1
   7  -1 -10 205.018 211.200   1
   7  -1  10-73.0506 211.517   1
   7   1  10 45.1270 33.1181   1
   7   2 -10 20.3797 80.6847   1
   7  -2 -10 104.871 60.2260   1
   7  -2  10 48.3162 151.967   1
   7   2  10 19.1122 140.352   1
   7  -3 -10 4082.16 854.933   1
   7  -3  10 3473.91 785.312   1
   7   3  10 3679.77 787.838   1
   7   3 -10 3656.85 812.295   1
   7  -4 -10 2821.94 743.230   1
  -7   4 -10 2245.77 627.966   1
   7   4 -10 1889.67 581.399   1
   7   5 -10 16779.2 1769.53   1
   7  -5 -10 12669.2 1593.11   1
   0   0 -11 86.8785 124.660   1
   0   1 -11 900.015 373.081   1
   0  -1 -11 1411.98 502.001   1
   0   2 -11 98.6153 181.021   1
   0  -2 -11-76.2647 61.8431   1
   0  -3 -11 59.1906 101.354   1
   0   3 -11-142.573 141.376   1
   0  -4 -11-16.0152 83.6653   1
   0   4 -11 72.7947 196.788   1
   0   5 -11 12646.4 1507.40   1
   0  -5 -11 13107.7 1522.42   1
   0  -6 -11 180.968 309.085   1
   0   6 -11-41.7141 179.152   1
   0  -7 -11 1679.48 596.332   1
   0  -8 -11 161.104 150.890   1
   0  -9 -11 1253.95 450.095   1
   1   0 -11 113635. 4741.50   1
  -1   0 -11 97420.0 4454.25   1
  -1   1 -11 1324.50 479.224   1
  -1  -1 -11 1771.62 536.640   1
   1   1 -11 2344.90 625.979   1
   1  -1 -11 1112.66 449.713   1
   1   2 -11 257704. 8167.47   1
   1  -2 -11 242506. 7954.45   1
  -1   2 -11 255677. 8108.34   1
  -1  -2 -11 242435. 7912.91   1
   1   3 -11 9813.98 1305.27   1
   1  -3 -11 10435.4 1342.11   1
  -1   3 -11 9292.29 1267.50   1
  -1  -3 -11 11552.4 1380.89   1
   1   4 -11 231909. 7805.12   1
   1  -4 -11 229608. 7695.99   1
  -1   4 -11 226484. 7715.54   1
  -1  -4 -11 241278. 7795.17   1
  -1  -5 -11 1576.96 554.382   1
   1   5 -11 741.126 366.435   1
   1  -5 -11 1308.96 483.672   1
  -1   5 -11 1169.82 484.393   1
   1   6 -11 130490. 5692.96   1
  -1   6 -11 138472. 5814.41   1
   1  -6 -11 154342. 5966.40   1
  -1  -6 -11 165601. 6081.74   1
   1   7 -11 613.563 408.581   1
  -1  -7 -11 546.691 260.515   1
   1  -7 -11 586.996 319.214   1
   1  -8 -11 129529. 5566.52   1
  -1  -8 -11 130004. 5525.58   1
   1  -9 -11 11791.7 1541.93   1
  -1  -9 -11 12046.2 1548.75   1
   2   0 -11 2332.98 634.395   1
  -2   0 -11 2157.80 599.292   1
  -2   1 -11 338.790 247.154   1
   2   1 -11 215.919 264.125   1
   2  -1 -11-102.096 172.843   1
  -2  -1 -11 119.696 50.2825   1
   2   2 -11 20594.8 1908.61   1
   2  -2 -11 21070.3 1905.85   1
  -2   2 -11 20948.0 1906.48   1
  -2  -2 -11 21413.7 1919.81   1
  -2   3 -11 306.372 207.871   1
   2   3 -11 149.998 114.090   1
  -2  -3 -11 345.851 258.444   1
  -2   4 -11 500.078 321.655   1
  -2  -4 -11 49.7842 215.383   1
   2   5 -11 16691.5 1786.36   1
   2  -5 -11 19667.3 1869.58   1
  -2   5 -11 16472.7 1738.24   1
  -2  -5 -11 18082.2 1779.94   1
  -2   6 -11 1239.72 493.090   1
   2   6 -11 1426.63 501.992   1
   2  -6 -11 2240.28 658.112   1
  -2  -6 -11 1348.33 508.995   1
   2   7 -11 2500.31 725.970   1
   2  -7 -11 3081.18 713.818   1
  -2  -7 -11 3556.85 758.083   1
   2  -8 -11 7043.64 1189.49   1
  -2  -8 -11 8506.28 1262.61   1
   2  -9 -11 4189.13 948.223   1
   3   0 -11 44568.4 2904.06   1
  -3   0 -11 46172.0 2874.37   1
  -3   1 -11 1137.39 447.058   1
  -3  -1 -11 1080.88 415.862   1
   3   1 -11 1039.73 428.418   1
   3  -1 -11 1719.86 549.776   1
   3   2 -11 194701. 6982.00   1
   3  -2 -11 195083. 6942.83   1
  -3   2 -11 193102. 6907.73   1
  -3  -2 -11 206454. 6968.35   1
  -3  -3 -11 2631.22 658.113   1
   3   3 -11 2964.25 723.020   1
   3  -3 -11 2267.85 621.600   1
  -3   3 -11 2269.48 621.599   1
   3  -4 -11 147963. 5885.63   1
  -3   4 -11 134819. 5608.59   1
  -3  -4 -11 146632. 5681.96   1
   3   4 -11 153057. 5956.74   1
   3   5 -11 20.2318 183.443   1
  -3  -5 -11 353.012 281.656   1
  -3   5 -11 186.643 201.974   1
   3  -5 -11 111.433 244.035   1
   3  -6 -11 142289. 5778.40   1
  -3   6 -11 124099. 5470.07   1
  -3  -6 -11 146012. 5677.84   1
   3   6 -11 126835. 5549.24   1
   3   7 -11 4716.81 955.857   1
  -3  -7 -11 5594.62 984.074   1
   3  -7 -11 5061.37 1005.42   1
   3  -8 -11 94901.8 4771.30   1
  -4   0 -11 15497.7 1628.37   1
   4   0 -11 16990.3 1737.83   1
   4   1 -11 1968.85 605.612   1
   4  -1 -11 1734.63 555.051   1
  -4   1 -11 1637.91 541.230   1
  -4  -1 -11 1698.11 558.270   1
  -4  -2 -11 357.594 257.666   1
   4   2 -11 436.134 245.686   1
   4  -2 -11 46.3611 144.596   1
  -4   2 -11 377.349 254.498   1
   4  -3 -11 23391.3 2102.65   1
  -4   3 -11 20654.0 1955.86   1
  -4  -3 -11 22023.0 1970.38   1
   4   3 -11 25956.0 2173.80   1
  -4   4 -11 1778.49 580.124   1
  -4  -4 -11 2993.02 710.959   1
   4   4 -11 1770.18 574.990   1
   4  -4 -11 2404.63 652.334   1
  -4  -5 -11-148.921 223.275   1
   4   5 -11-156.162 307.499   1
   4  -5 -11 126.051 143.908   1
  -4   5 -11-90.4645 110.591   1
  -4  -6 -11 1797.43 563.084   1
   4   6 -11 2010.88 622.942   1
   4  -6 -11 2068.25 597.033   1
   4   7 -11 3319.81 797.335   1
   4  -7 -11 3862.01 885.936   1
  -5   0 -11 201380. 7316.95   1
   5   0 -11 264436. 8081.31   1
  -5   1 -11 7318.54 1108.02   1
  -5  -1 -11 5227.22 966.345   1
   5   1 -11 6182.63 1067.74   1
   5  -1 -11 6520.04 1085.67   1
  -5   2 -11 367195. 10981.4   1
  -5  -2 -11 391637. 11022.3   1
   5   2 -11 394266. 11211.6   1
   5  -2 -11 379184. 11117.6   1
  -5  -3 -11 993.016 472.857   1
   5   3 -11 1308.42 514.178   1
   5  -3 -11 1047.96 476.577   1
  -5   3 -11 899.627 402.896   1
  -5  -4 -11 150088. 5858.72   1
   5   4 -11 171251. 6311.89   1
   5  -4 -11 161719. 6199.64   1
   5   5 -11 125.689 159.972   1
  -5   5 -11 66.8624 118.900   1
   5   6 -11 64516.3 3752.38   1
  -6   0 -11 695.585 444.207   1
  -6   1 -11 775.518 355.864   1
  -6   2 -11 3370.43 765.684   1
  -6   3 -11 2313.41 649.055   1
  -6   4 -11 7495.96 1173.99   1
   0   0 -12 48266.8 3024.03   1
   0  -1 -12-84.9282 229.458   1
   0   1 -12-196.070 271.730   1
   0   2 -12 233219. 7763.15   1
   0  -2 -12 218038. 7473.09   1
   0  -3 -12 226.333 272.143   1
   0   3 -12-233.676 193.255   1
   0   4 -12 129888. 5471.91   1
   0  -4 -12 123090. 5256.38   1
   0   5 -12-128.478 220.726   1
   0   6 -12 70143.4 3981.36   1
  -1   0 -12 6499.30 1054.51   1
   1   0 -12 5866.94 1001.64   1
  -1   1 -12 2776.67 687.124   1
  -1  -1 -12 2001.66 598.402   1
   1   1 -12 1986.75 591.784   1
   1  -1 -12 2759.32 694.170   1
  -1   2 -12 958.723 379.838   1
  -1  -2 -12 453.227 239.663   1
   1   2 -12 773.986 279.336   1
   1  -2 -12 1281.07 451.814   1
   1   3 -12 6335.95 1077.77   1
   1  -3 -12 7283.90 1139.96   1
  -1   3 -12 6704.03 1092.64   1
  -1  -3 -12 6057.95 1019.03   1
   1  -4 -12 7946.03 1196.32   1
   1   4 -12 5630.78 1004.22   1
  -1   4 -12 5375.67 1000.44   1
   1   5 -12 576.413 328.421   1
  -1   5 -12 80.8887 144.265   1
   1   6 -12 588.331 320.595   1
   2   0 -12 41510.8 2805.60   1
  -2   0 -12 36195.9 2592.26   1
   2   1 -12 11357.0 1441.22   1
   2  -1 -12 11961.8 1434.71   1
  -2   1 -12 11813.6 1439.52   1
  -2  -1 -12 10558.6 1341.73   1
   2   2 -12 156826. 6135.63   1
   2  -2 -12 163532. 6198.37   1
  -2   2 -12 153962. 6070.25   1
  -2  -2 -12 164755. 6121.03   1
   2   3 -12 10223.6 1373.41   1
   2  -3 -12 11005.3 1392.98   1
  -2   3 -12 9578.49 1324.05   1
   2   4 -12 175902. 6669.12   1
  -2   4 -12 163502. 6377.29   1
   2   5 -12 7642.41 1218.92   1
  -2   5 -12 7055.29 1154.72   1
   2   6 -12 135078. 5810.91   1
   3   0 -12 6924.90 1122.35   1
  -3   0 -12 3617.06 793.812   1
   3   1 -12 2349.07 661.713   1
  -3   1 -12 1339.02 507.365   1
  -3  -1 -12 2011.60 586.719   1
   3   2 -12 24673.8 2180.16   1
  -3   2 -12 21869.8 1976.20   1
  -3   3 -12 4144.04 868.999   1
  -3   4 -12-20.8997 38.0502   1
  -3   5 -12 37.3254 18.7588   1
   0   0   0    0.00    0.00   0

TITL Cofor_293K in Pnma
REM Pnma (#62, found as Pbnm in bca setting)
CELL 0.67165   8.407682  11.721469   8.110948  90.0000  90.0000  90.0000
ZERR    4.00   0.000124   0.000447   0.000114   0.0000   0.0000   0.0000
LATT  1
SYMM -x+1/2,-y, z+1/2
SYMM -x, y+1/2,-z
SYMM  x+1/2,-y+1/2,-z+1/2
SFAC C H N O Co
UNIT 16.00 36.00 4.00 24.00 4.00
TREF
HKLF 4
END
;
_shelx_hkl_checksum              60251
