_cell_length_a                         12.668500
_cell_length_b                         12.668500
_cell_length_c                         8.537400
_cell_angle_alpha                      90.000000
_cell_angle_beta                       90.000000
_cell_angle_gamma                      120.000000
_space_group_IT_number                 1
 loop_
 _space_group_symop_operation_xyz 
 'x, y, z' 
 loop_ 
 _atom_site_label 
 _atom_site_occupancy 
 _atom_site_fract_x 
 _atom_site_fract_y
 _atom_site_fract_z
 _atom_site_adp_type
 _atom_site_U_iso_or_equiv
 _atom_site_type_symbol
 Mn1    1.0    0.162804    0.163826    0.754740 Biso 1.000000  Mn    
 Mn2    1.0    0.831022    0.497196    0.754740 Biso 1.000000  Mn    
 Mn3    1.0    0.496174    0.828978    0.754740 Biso 1.000000  Mn    
 Mn4    1.0    0.497196    0.496174    0.254740 Biso 1.000000  Mn    
 Mn5    1.0    0.828978    0.162804    0.254740 Biso 1.000000  Mn    
 Mn6    1.0    0.163826    0.831022    0.254740 Biso 1.000000  Mn    
 O1     1.0    0.097046    0.259696    0.901142 Biso 1.000000  O     
 O2     1.0    0.992650    0.562954    0.901142 Biso 1.000000  O     
 O3     1.0    0.400304    0.667350    0.901142 Biso 1.000000  O     
 O4     1.0    0.562954    0.400304    0.401142 Biso 1.000000  O     
 O5     1.0    0.667350    0.097046    0.401142 Biso 1.000000  O     
 O6     1.0    0.259696    0.992650    0.401142 Biso 1.000000  O     
 O7     1.0    0.991390    0.260564    0.109062 Biso 1.000000  O     
 O8     1.0    0.099174    0.668610    0.109062 Biso 1.000000  O     
 O9     1.0    0.399436    0.560826    0.109062 Biso 1.000000  O     
 O10    1.0    0.668610    0.399436    0.609062 Biso 1.000000  O     
 O11    1.0    0.560826    0.991390    0.609062 Biso 1.000000  O     
 O12    1.0    0.260564    0.099174    0.609062 Biso 1.000000  O     
 O13    1.0    0.324654    0.228556    0.901756 Biso 1.000000  O     
 O14    1.0    0.733902    0.335346    0.901756 Biso 1.000000  O     
 O15    1.0    0.431444    0.926098    0.901756 Biso 1.000000  O     
 O16    1.0    0.335346    0.431444    0.401756 Biso 1.000000  O     
 O17    1.0    0.926098    0.324654    0.401756 Biso 1.000000  O     
 O18    1.0    0.228556    0.733902    0.401756 Biso 1.000000  O     
 O19    1.0    0.431436    0.333504    0.109156 Biso 1.000000  O     
 O20    1.0    0.732068    0.228564    0.109156 Biso 1.000000  O     
 O21    1.0    0.326496    0.927932    0.109156 Biso 1.000000  O     
 O22    1.0    0.228564    0.326496    0.609156 Biso 1.000000  O     
 O23    1.0    0.927932    0.431436    0.609156 Biso 1.000000  O     
 O24    1.0    0.333504    0.732068    0.609156 Biso 1.000000  O     
 O25    1.0    0.065024    1.000848    0.899380 Biso 1.000000  O     
 O26    1.0    0.765824    0.594976    0.899380 Biso 1.000000  O     
 O27    1.0    0.659152    0.894176    0.899380 Biso 1.000000  O     
 O28    1.0    0.594976    0.659152    0.399380 Biso 1.000000  O     
 O29    1.0    0.894176    0.065024    0.399380 Biso 1.000000  O     
 O30    1.0    1.000848    0.765824    0.399380 Biso 1.000000  O     
 O31    1.0    0.067616    0.896094    0.106940 Biso 1.000000  O     
 O32    1.0    0.658478    0.592384    0.106940 Biso 1.000000  O     
 O33    1.0    0.763906    0.001522    0.106940 Biso 1.000000  O     
 O34    1.0    0.592384    0.763906    0.606940 Biso 1.000000  O     
 O35    1.0    0.001522    0.067616    0.606940 Biso 1.000000  O     
 O36    1.0    0.896094    0.658478    0.606940 Biso 1.000000  O     
 C1     1.0    0.020192    0.209630    0.007140 Biso 1.000000  C     
 C2     1.0    0.019438    0.639808    0.007140 Biso 1.000000  C     
 C3     1.0    0.450370    0.640562    0.007140 Biso 1.000000  C     
 C4     1.0    0.639808    0.450370    0.507140 Biso 1.000000  C     
 C5     1.0    0.640562    0.020192    0.507140 Biso 1.000000  C     
 C6     1.0    0.209630    0.019438    0.507140 Biso 1.000000  C     
 C7     1.0    0.351750    0.304860    0.007920 Biso 1.000000  C     
 C8     1.0    0.783110    0.308250    0.007920 Biso 1.000000  C     
 C9     1.0    0.355140    0.876890    0.007920 Biso 1.000000  C     
 C10    1.0    0.308250    0.355140    0.507920 Biso 1.000000  C     
 C11    1.0    0.876890    0.351750    0.507920 Biso 1.000000  C     
 C12    1.0    0.304860    0.783110    0.507920 Biso 1.000000  C     
 C13    1.0    0.116600    0.971528    1.000040 Biso 1.000000  C     
 C14    1.0    0.684928    0.543400    1.000040 Biso 1.000000  C     
 C15    1.0    0.688472    0.975072    1.000040 Biso 1.000000  C     
 C16    1.0    0.543400    0.688472    0.500040 Biso 1.000000  C     
 C17    1.0    0.975072    0.116600    0.500040 Biso 1.000000  C     
 C18    1.0    0.971528    0.684928    0.500040 Biso 1.000000  C     
 H1     1.0    0.980020    0.124900    0.010300 Biso 1.000000  H     
 H2     1.0    0.974880    0.679980    0.010300 Biso 1.000000  H     
 H3     1.0    0.535100    0.685120    0.010300 Biso 1.000000  H     
 H4     1.0    0.679980    0.535100    0.510300 Biso 1.000000  H     
 H5     1.0    0.685120    0.980020    0.510300 Biso 1.000000  H     
 H6     1.0    0.124900    0.974880    0.510300 Biso 1.000000  H     
 H7     1.0    0.307340    0.344840    0.011760 Biso 1.000000  H     
 H8     1.0    0.867500    0.352660    0.011760 Biso 1.000000  H     
 H9     1.0    0.315160    0.792500    0.011760 Biso 1.000000  H     
 H10    1.0    0.352660    0.315160    0.511760 Biso 1.000000  H     
 H11    1.0    0.792500    0.307340    0.511760 Biso 1.000000  H     
 H12    1.0    0.344840    0.867500    0.511760 Biso 1.000000  H     
 H13    1.0    0.198500    1.009180    0.994740 Biso 1.000000  H     
 H14    1.0    0.640680    0.461500    0.994740 Biso 1.000000  H     
 H15    1.0    0.650820    0.019320    0.994740 Biso 1.000000  H     
 H16    1.0    0.461500    0.650820    0.494740 Biso 1.000000  H     
 H17    1.0    0.019320    0.198500    0.494740 Biso 1.000000  H     
 H18    1.0    1.009180    0.640680    0.494740 Biso 1.000000  H     
 H19    1.0    0.120433    0.416380    0.761678 Biso 1.000000  H     
 H20    1.0    0.190157    0.519366    0.858914 Biso 1.000000  H     
 H21    1.0    0.227446    0.518685    0.702123 Biso 1.000000  H     
 H22    1.0    0.571592    0.219907    0.286800 Biso 1.000000  H     
 H23    1.0    0.501868    0.116921    0.189564 Biso 1.000000  H     
 H24    1.0    0.464579    0.117603    0.346355 Biso 1.000000  H     
 H25    1.0    0.117492    0.530610    0.729122 Biso 1.000000  H     
 H26    1.0    0.450826    0.197276    0.229122 Biso 1.000000  H     
 H27    1.0    0.521734    0.184296    0.869063 Biso 1.000000  H     
 H28    1.0    0.566217    0.191184    0.707051 Biso 1.000000  H     
 H29    1.0    0.456389    0.079420    0.761808 Biso 1.000000  H     
 H30    1.0    0.174491    0.452304    0.189550 Biso 1.000000  H     
 H31    1.0    0.130008    0.445416    0.351562 Biso 1.000000  H     
 H32    1.0    0.239836    0.557180    0.296806 Biso 1.000000  H     
 H33    1.0    0.446957    0.195444    0.732336 Biso 1.000000  H     
 H34    1.0    0.113623    0.528778    0.232336 Biso 1.000000  H     
 H35    1.0    0.846669    0.854710    0.141931 Biso 1.000000  H     
 H36    1.0    0.749224    0.774067    0.250527 Biso 1.000000  H     
 H37    1.0    0.844392    0.895625    0.302603 Biso 1.000000  H     
 H38    1.0    0.780187    0.828225    0.821443 Biso 1.000000  H     
 H39    1.0    0.877633    0.908868    0.712847 Biso 1.000000  H     
 H40    1.0    0.782465    0.787309    0.660771 Biso 1.000000  H     
 H41    1.0    0.876852    0.797579    0.276742 Biso 1.000000  H     
 H42    1.0    0.876852    0.797579    0.776742 Biso 1.000000  H     
 N1     1.0    0.163331    0.496668    0.762558 Biso 1.000000  N     
 N2     1.0    0.496665    0.163334    0.262558 Biso 1.000000  N     
 N3     1.0    0.496664    0.163335    0.766761 Biso 1.000000  N     
 N4     1.0    0.163330    0.496669    0.266761 Biso 1.000000  N     
 N5     1.0    0.830002    0.829999    0.243461 Biso 1.000000  N     
 N6     1.0    0.830002    0.829999    0.743461 Biso 1.000000  N     
