_cell_length_a                         12.668500
_cell_length_b                         12.668500
_cell_length_c                         8.537400
_cell_angle_alpha                      90.000000
_cell_angle_beta                       90.000000
_cell_angle_gamma                      120.000000
_space_group_IT_number                 1
 loop_
 _space_group_symop_operation_xyz 
 'x, y, z' 
 loop_ 
 _atom_site_label 
 _atom_site_occupancy 
 _atom_site_fract_x 
 _atom_site_fract_y
 _atom_site_fract_z
 _atom_site_adp_type
 _atom_site_U_iso_or_equiv
 _atom_site_type_symbol
 Mn1    1.0    0.162293    0.164337    0.754480 Biso 1.000000  Mn    
 Mn2    1.0    0.832044    0.497707    0.754480 Biso 1.000000  Mn    
 Mn3    1.0    0.495663    0.827956    0.754480 Biso 1.000000  Mn    
 Mn4    1.0    0.497707    0.495663    0.254480 Biso 1.000000  Mn    
 Mn5    1.0    0.827956    0.162293    0.254480 Biso 1.000000  Mn    
 Mn6    1.0    0.164337    0.832044    0.254480 Biso 1.000000  Mn    
 O1     1.0    0.095982    0.259262    0.901244 Biso 1.000000  O     
 O2     1.0    0.993280    0.564018    0.901244 Biso 1.000000  O     
 O3     1.0    0.400738    0.666720    0.901244 Biso 1.000000  O     
 O4     1.0    0.564018    0.400738    0.401244 Biso 1.000000  O     
 O5     1.0    0.666720    0.095982    0.401244 Biso 1.000000  O     
 O6     1.0    0.259262    0.993280    0.401244 Biso 1.000000  O     
 O7     1.0    0.990760    0.260998    0.109164 Biso 1.000000  O     
 O8     1.0    0.100238    0.669240    0.109164 Biso 1.000000  O     
 O9     1.0    0.399002    0.559762    0.109164 Biso 1.000000  O     
 O10    1.0    0.669240    0.399002    0.609164 Biso 1.000000  O     
 O11    1.0    0.559762    0.990760    0.609164 Biso 1.000000  O     
 O12    1.0    0.260998    0.100238    0.609164 Biso 1.000000  O     
 O13    1.0    0.323733    0.228552    0.902212 Biso 1.000000  O     
 O14    1.0    0.734819    0.336267    0.902212 Biso 1.000000  O     
 O15    1.0    0.431448    0.925181    0.902212 Biso 1.000000  O     
 O16    1.0    0.336267    0.431448    0.402212 Biso 1.000000  O     
 O17    1.0    0.925181    0.323733    0.402212 Biso 1.000000  O     
 O18    1.0    0.228552    0.734819    0.402212 Biso 1.000000  O     
 O19    1.0    0.431432    0.332583    0.109612 Biso 1.000000  O     
 O20    1.0    0.731151    0.228568    0.109612 Biso 1.000000  O     
 O21    1.0    0.327417    0.928849    0.109612 Biso 1.000000  O     
 O22    1.0    0.228568    0.327417    0.609612 Biso 1.000000  O     
 O23    1.0    0.928849    0.431432    0.609612 Biso 1.000000  O     
 O24    1.0    0.332583    0.731151    0.609612 Biso 1.000000  O     
 O25    1.0    0.063728    1.000511    0.897540 Biso 1.000000  O     
 O26    1.0    0.766783    0.596272    0.897540 Biso 1.000000  O     
 O27    1.0    0.659489    0.893217    0.897540 Biso 1.000000  O     
 O28    1.0    0.596272    0.659489    0.397540 Biso 1.000000  O     
 O29    1.0    0.893217    0.063728    0.397540 Biso 1.000000  O     
 O30    1.0    1.000511    0.766783    0.397540 Biso 1.000000  O     
 O31    1.0    0.068912    0.897053    0.105100 Biso 1.000000  O     
 O32    1.0    0.658141    0.591088    0.105100 Biso 1.000000  O     
 O33    1.0    0.762947    0.001859    0.105100 Biso 1.000000  O     
 O34    1.0    0.591088    0.762947    0.605100 Biso 1.000000  O     
 O35    1.0    0.001859    0.068912    0.605100 Biso 1.000000  O     
 O36    1.0    0.897053    0.658141    0.605100 Biso 1.000000  O     
 C1     1.0    0.020569    0.209630    0.009280 Biso 1.000000  C     
 C2     1.0    0.019061    0.639431    0.009280 Biso 1.000000  C     
 C3     1.0    0.450370    0.640939    0.009280 Biso 1.000000  C     
 C4     1.0    0.639431    0.450370    0.509280 Biso 1.000000  C     
 C5     1.0    0.640939    0.020569    0.509280 Biso 1.000000  C     
 C6     1.0    0.209630    0.019061    0.509280 Biso 1.000000  C     
 C7     1.0    0.350055    0.303165    0.010840 Biso 1.000000  C     
 C8     1.0    0.783110    0.309945    0.010840 Biso 1.000000  C     
 C9     1.0    0.356835    0.876890    0.010840 Biso 1.000000  C     
 C10    1.0    0.309945    0.356835    0.510840 Biso 1.000000  C     
 C11    1.0    0.876890    0.350055    0.510840 Biso 1.000000  C     
 C12    1.0    0.303165    0.783110    0.510840 Biso 1.000000  C     
 C13    1.0    0.116600    0.969756    0.995080 Biso 1.000000  C     
 C14    1.0    0.683156    0.543400    0.995080 Biso 1.000000  C     
 C15    1.0    0.690244    0.976844    0.995080 Biso 1.000000  C     
 C16    1.0    0.543400    0.690244    0.495080 Biso 1.000000  C     
 C17    1.0    0.976844    0.116600    0.495080 Biso 1.000000  C     
 C18    1.0    0.969756    0.683156    0.495080 Biso 1.000000  C     
 H1     1.0    0.982590    0.124900    0.015600 Biso 1.000000  H     
 H2     1.0    0.972310    0.677410    0.015600 Biso 1.000000  H     
 H3     1.0    0.535100    0.687690    0.015600 Biso 1.000000  H     
 H4     1.0    0.677410    0.535100    0.515600 Biso 1.000000  H     
 H5     1.0    0.687690    0.982590    0.515600 Biso 1.000000  H     
 H6     1.0    0.124900    0.972310    0.515600 Biso 1.000000  H     
 H7     1.0    0.303430    0.340930    0.018520 Biso 1.000000  H     
 H8     1.0    0.867500    0.356570    0.018520 Biso 1.000000  H     
 H9     1.0    0.319070    0.792500    0.018520 Biso 1.000000  H     
 H10    1.0    0.356570    0.319070    0.518520 Biso 1.000000  H     
 H11    1.0    0.792500    0.303430    0.518520 Biso 1.000000  H     
 H12    1.0    0.340930    0.867500    0.518520 Biso 1.000000  H     
 H13    1.0    0.198500    1.004110    0.984480 Biso 1.000000  H     
 H14    1.0    0.635610    0.461500    0.984480 Biso 1.000000  H     
 H15    1.0    0.655890    0.024390    0.984480 Biso 1.000000  H     
 H16    1.0    0.461500    0.655890    0.484480 Biso 1.000000  H     
 H17    1.0    0.024390    0.198500    0.484480 Biso 1.000000  H     
 H18    1.0    1.004110    0.635610    0.484480 Biso 1.000000  H     
 H19    1.0    0.127245    0.416936    0.783752 Biso 1.000000  H     
 H20    1.0    0.173355    0.528756    0.866465 Biso 1.000000  H     
 H21    1.0    0.236410    0.521293    0.733091 Biso 1.000000  H     
 H22    1.0    0.564096    0.227721    0.305121 Biso 1.000000  H     
 H23    1.0    0.517985    0.115901    0.222408 Biso 1.000000  H     
 H24    1.0    0.454931    0.123363    0.355782 Biso 1.000000  H     
 H25    1.0    0.118472    0.518630    0.708620 Biso 1.000000  H     
 H26    1.0    0.451806    0.185296    0.208620 Biso 1.000000  H     
 H27    1.0    0.503675    0.193250    0.876635 Biso 1.000000  H     
 H28    1.0    0.574818    0.193913    0.738820 Biso 1.000000  H     
 H29    1.0    0.463606    0.080179    0.785398 Biso 1.000000  H     
 H30    1.0    0.191057    0.451645    0.223932 Biso 1.000000  H     
 H31    1.0    0.119914    0.450981    0.361748 Biso 1.000000  H     
 H32    1.0    0.231126    0.564715    0.315169 Biso 1.000000  H     
 H33    1.0    0.449005    0.184062    0.710940 Biso 1.000000  H     
 H34    1.0    0.115671    0.517396    0.210940 Biso 1.000000  H     
 H35    1.0    0.861118    0.847468    0.133175 Biso 1.000000  H     
 H36    1.0    0.751485    0.768026    0.225553 Biso 1.000000  H     
 H37    1.0    0.829255    0.896739    0.269851 Biso 1.000000  H     
 H38    1.0    0.766787    0.827354    0.785877 Biso 1.000000  H     
 H39    1.0    0.876420    0.906796    0.693500 Biso 1.000000  H     
 H40    1.0    0.798650    0.778083    0.649202 Biso 1.000000  H     
 H41    1.0    0.875370    0.809047    0.295225 Biso 1.000000  H     
 H42    1.0    0.875370    0.809047    0.795225 Biso 1.000000  H     
 N1     1.0    0.163331    0.496668    0.772218 Biso 1.000000  N     
 N2     1.0    0.496665    0.163334    0.272218 Biso 1.000000  N     
 N3     1.0    0.496664    0.163334    0.776420 Biso 1.000000  N     
 N4     1.0    0.163330    0.496668    0.276420 Biso 1.000000  N     
 N5     1.0    0.830002    0.829999    0.231921 Biso 1.000000  N     
 N6     1.0    0.830002    0.829999    0.731921 Biso 1.000000  N     
