_cell_length_a                         12.668500
_cell_length_b                         12.668500
_cell_length_c                         8.537400
_cell_angle_alpha                      90.000000
_cell_angle_beta                       90.000000
_cell_angle_gamma                      120.000000
_space_group_IT_number                 1
 loop_
 _space_group_symop_operation_xyz 
 'x, y, z' 
 loop_ 
 _atom_site_label 
 _atom_site_occupancy 
 _atom_site_fract_x 
 _atom_site_fract_y
 _atom_site_fract_z
 _atom_site_adp_type
 _atom_site_U_iso_or_equiv
 _atom_site_type_symbol
 Mn1    1.0    0.164848    0.161782    0.755780 Biso 1.000000  Mn    
 Mn2    1.0    0.826934    0.495152    0.755780 Biso 1.000000  Mn    
 Mn3    1.0    0.498218    0.833066    0.755780 Biso 1.000000  Mn    
 Mn4    1.0    0.495152    0.498218    0.255780 Biso 1.000000  Mn    
 Mn5    1.0    0.833066    0.164848    0.255780 Biso 1.000000  Mn    
 Mn6    1.0    0.161782    0.826934    0.255780 Biso 1.000000  Mn    
 O1     1.0    0.101302    0.261432    0.900734 Biso 1.000000  O     
 O2     1.0    0.990130    0.558698    0.900734 Biso 1.000000  O     
 O3     1.0    0.398568    0.669870    0.900734 Biso 1.000000  O     
 O4     1.0    0.558698    0.398568    0.400734 Biso 1.000000  O     
 O5     1.0    0.669870    0.101302    0.400734 Biso 1.000000  O     
 O6     1.0    0.261432    0.990130    0.400734 Biso 1.000000  O     
 O7     1.0    0.993910    0.258828    0.108654 Biso 1.000000  O     
 O8     1.0    0.094918    0.666090    0.108654 Biso 1.000000  O     
 O9     1.0    0.401172    0.565082    0.108654 Biso 1.000000  O     
 O10    1.0    0.666090    0.401172    0.608654 Biso 1.000000  O     
 O11    1.0    0.565082    0.993910    0.608654 Biso 1.000000  O     
 O12    1.0    0.258828    0.094918    0.608654 Biso 1.000000  O     
 O13    1.0    0.328338    0.228572    0.899932 Biso 1.000000  O     
 O14    1.0    0.730234    0.331662    0.899932 Biso 1.000000  O     
 O15    1.0    0.431428    0.929766    0.899932 Biso 1.000000  O     
 O16    1.0    0.331662    0.431428    0.399932 Biso 1.000000  O     
 O17    1.0    0.929766    0.328338    0.399932 Biso 1.000000  O     
 O18    1.0    0.228572    0.730234    0.399932 Biso 1.000000  O     
 O19    1.0    0.431452    0.337188    0.107332 Biso 1.000000  O     
 O20    1.0    0.735736    0.228548    0.107332 Biso 1.000000  O     
 O21    1.0    0.322812    0.924264    0.107332 Biso 1.000000  O     
 O22    1.0    0.228548    0.322812    0.607332 Biso 1.000000  O     
 O23    1.0    0.924264    0.431452    0.607332 Biso 1.000000  O     
 O24    1.0    0.337188    0.735736    0.607332 Biso 1.000000  O     
 O25    1.0    0.070208    1.002196    0.906740 Biso 1.000000  O     
 O26    1.0    0.761988    0.589792    0.906740 Biso 1.000000  O     
 O27    1.0    0.657804    0.898012    0.906740 Biso 1.000000  O     
 O28    1.0    0.589792    0.657804    0.406740 Biso 1.000000  O     
 O29    1.0    0.898012    0.070208    0.406740 Biso 1.000000  O     
 O30    1.0    1.002196    0.761988    0.406740 Biso 1.000000  O     
 O31    1.0    0.062432    0.892258    0.114300 Biso 1.000000  O     
 O32    1.0    0.659826    0.597568    0.114300 Biso 1.000000  O     
 O33    1.0    0.767742    0.000174    0.114300 Biso 1.000000  O     
 O34    1.0    0.597568    0.767742    0.614300 Biso 1.000000  O     
 O35    1.0    0.000174    0.062432    0.614300 Biso 1.000000  O     
 O36    1.0    0.892258    0.659826    0.614300 Biso 1.000000  O     
 C1     1.0    0.018684    0.209630   -0.001420 Biso 1.000000  C     
 C2     1.0    0.020946    0.641316   -0.001420 Biso 1.000000  C     
 C3     1.0    0.450370    0.639054   -0.001420 Biso 1.000000  C     
 C4     1.0    0.641316    0.450370    0.498580 Biso 1.000000  C     
 C5     1.0    0.639054    0.018684    0.498580 Biso 1.000000  C     
 C6     1.0    0.209630    0.020946    0.498580 Biso 1.000000  C     
 C7     1.0    0.358530    0.311640   -0.003760 Biso 1.000000  C     
 C8     1.0    0.783110    0.301470   -0.003760 Biso 1.000000  C     
 C9     1.0    0.348360    0.876890   -0.003760 Biso 1.000000  C     
 C10    1.0    0.301470    0.348360    0.496240 Biso 1.000000  C     
 C11    1.0    0.876890    0.358530    0.496240 Biso 1.000000  C     
 C12    1.0    0.311640    0.783110    0.496240 Biso 1.000000  C     
 C13    1.0    0.116600    0.978616    1.019880 Biso 1.000000  C     
 C14    1.0    0.692016    0.543400    1.019880 Biso 1.000000  C     
 C15    1.0    0.681384    0.967984    1.019880 Biso 1.000000  C     
 C16    1.0    0.543400    0.681384    0.519880 Biso 1.000000  C     
 C17    1.0    0.967984    0.116600    0.519880 Biso 1.000000  C     
 C18    1.0    0.978616    0.692016    0.519880 Biso 1.000000  C     
 H1     1.0    0.969740    0.124900   -0.010900 Biso 1.000000  H     
 H2     1.0    0.985160    0.690260   -0.010900 Biso 1.000000  H     
 H3     1.0    0.535100    0.674840   -0.010900 Biso 1.000000  H     
 H4     1.0    0.690260    0.535100    0.489100 Biso 1.000000  H     
 H5     1.0    0.674840    0.969740    0.489100 Biso 1.000000  H     
 H6     1.0    0.124900    0.985160    0.489100 Biso 1.000000  H     
 H7     1.0    0.322980    0.360480   -0.015280 Biso 1.000000  H     
 H8     1.0    0.867500    0.337020   -0.015280 Biso 1.000000  H     
 H9     1.0    0.299520    0.792500   -0.015280 Biso 1.000000  H     
 H10    1.0    0.337020    0.299520    0.484720 Biso 1.000000  H     
 H11    1.0    0.792500    0.322980    0.484720 Biso 1.000000  H     
 H12    1.0    0.360480    0.867500    0.484720 Biso 1.000000  H     
 H13    1.0    0.198500    1.029460    1.035780 Biso 1.000000  H     
 H14    1.0    0.660960    0.461500    1.035780 Biso 1.000000  H     
 H15    1.0    0.630540   -0.000960    1.035780 Biso 1.000000  H     
 H16    1.0    0.461500    0.630540    0.535780 Biso 1.000000  H     
 H17    1.0   -0.000960    0.198500    0.535780 Biso 1.000000  H     
 H18    1.0    1.029460    0.660960    0.535780 Biso 1.000000  H     
 H19    1.0    0.091890    0.442324    0.685574 Biso 1.000000  H     
 H20    1.0    0.203588    0.458382    0.745669 Biso 1.000000  H     
 H21    1.0    0.203385    0.549474    0.648767 Biso 1.000000  H     
 H22    1.0    0.574020    0.191128    0.201100 Biso 1.000000  H     
 H23    1.0    0.462322    0.175071    0.141005 Biso 1.000000  H     
 H24    1.0    0.462525    0.083978    0.237907 Biso 1.000000  H     
 H25    1.0    0.154873    0.534667    0.811453 Biso 1.000000  H     
 H26    1.0    0.488207    0.201333    0.311453 Biso 1.000000  H     
 H27    1.0    0.540822    0.125408    0.750751 Biso 1.000000  H     
 H28    1.0    0.538638    0.219623    0.650622 Biso 1.000000  H     
 H29    1.0    0.424167    0.105007    0.684464 Biso 1.000000  H     
 H30    1.0    0.128261    0.507952    0.139806 Biso 1.000000  H     
 H31    1.0    0.130445    0.413737    0.239935 Biso 1.000000  H     
 H32    1.0    0.244916    0.528352    0.206093 Biso 1.000000  H     
 H33    1.0    0.484203    0.199891    0.818249 Biso 1.000000  H     
 H34    1.0    0.150869    0.533225    0.318249 Biso 1.000000  H     
 H35    1.0    0.838087    0.903562    0.264970 Biso 1.000000  H     
 H36    1.0    0.754729    0.782894    0.332086 Biso 1.000000  H     
 H37    1.0    0.886316    0.842390    0.364271 Biso 1.000000  H     
 H38    1.0    0.814668    0.782336    0.875915 Biso 1.000000  H     
 H39    1.0    0.898026    0.903004    0.808799 Biso 1.000000  H     
 H40    1.0    0.766438    0.843507    0.776614 Biso 1.000000  H     
 H41    1.0    0.840242    0.793390    0.202488 Biso 1.000000  H     
 H42    1.0    0.840242    0.793390    0.702488 Biso 1.000000  H     
 N1     1.0    0.163333    0.496668    0.723918 Biso 1.000000  N     
 N2     1.0    0.496667    0.163334    0.223918 Biso 1.000000  N     
 N3     1.0    0.496666    0.163335    0.728125 Biso 1.000000  N     
 N4     1.0    0.163332    0.496669    0.228125 Biso 1.000000  N     
 N5     1.0    0.830000    0.829998    0.289619 Biso 1.000000  N     
 N6     1.0    0.830000    0.829998    0.789619 Biso 1.000000  N     
