_cell_length_a                         8.244267
_cell_length_b                         12.164444
_cell_length_c                         8.623752
_cell_angle_alpha                      96.416313
_cell_angle_beta                       90.000000
_cell_angle_gamma                      90.000000
_space_group_IT_number                 1
 loop_
 _space_group_symop_operation_xyz 
 'x, y, z' 
 loop_ 
 _atom_site_label 
 _atom_site_occupancy 
 _atom_site_fract_x 
 _atom_site_fract_y
 _atom_site_fract_z
 _atom_site_adp_type
 _atom_site_U_iso_or_equiv
 _atom_site_type_symbol
 Co1    1.0    0.251644    1.000072    0.758684 Biso 1.000000  Co    
 Co2    1.0    0.748356    1.000072    0.258684 Biso 1.000000  Co    
 Co3    1.0    0.751644    0.500072    0.258684 Biso 1.000000  Co    
 Co4    1.0    0.248356    0.500072    0.758684 Biso 1.000000  Co    
 O1     1.0    0.360200    0.159138    0.755782 Biso 1.000000  O     
 O2     1.0    0.639800    0.159138    0.255782 Biso 1.000000  O     
 O3     1.0    0.860200    0.659138    0.255782 Biso 1.000000  O     
 O4     1.0    0.139800    0.659138    0.755782 Biso 1.000000  O     
 O5     1.0    0.469388    0.555754    0.669544 Biso 1.000000  O     
 O6     1.0    0.530612    0.555754    0.169544 Biso 1.000000  O     
 O7     1.0    0.969388    0.055754    0.169544 Biso 1.000000  O     
 O8     1.0    0.030612    0.055754    0.669544 Biso 1.000000  O     
 O9     1.0    0.163914    0.052418    0.987910 Biso 1.000000  O     
 O10    1.0    0.836086    0.052418    0.487910 Biso 1.000000  O     
 O11    1.0    0.663914    0.552418    0.487910 Biso 1.000000  O     
 O12    1.0    0.336086    0.552418    0.987910 Biso 1.000000  O     
 O13    1.0    0.025518    0.449034    0.845244 Biso 1.000000  O     
 O14    1.0    0.974482    0.449034    0.345244 Biso 1.000000  O     
 O15    1.0    0.525518    0.949034    0.345244 Biso 1.000000  O     
 O16    1.0    0.474482    0.949034    0.845244 Biso 1.000000  O     
 O17    1.0    0.333674    0.950618    0.529740 Biso 1.000000  O     
 O18    1.0    0.666326    0.950618    0.029740 Biso 1.000000  O     
 O19    1.0    0.833674    0.450618    0.029740 Biso 1.000000  O     
 O20    1.0    0.166326    0.450618    0.529740 Biso 1.000000  O     
 O21    1.0    0.357950    0.343088    0.762522 Biso 1.000000  O     
 O22    1.0    0.642050    0.343088    0.262522 Biso 1.000000  O     
 O23    1.0    0.857950    0.843088    0.262522 Biso 1.000000  O     
 O24    1.0    0.142050    0.843088    0.762522 Biso 1.000000  O     
 C1     1.0    0.221880    0.839794    0.276975 Biso 1.000000  C     
 C2     1.0    0.778120    0.772824    0.591879 Biso 1.000000  C     
 C3     1.0    0.721880    0.339794    0.776975 Biso 1.000000  C     
 C4     1.0    0.278120    0.272824    0.091879 Biso 1.000000  C     
 C5     1.0    0.285530    0.251086    0.759044 Biso 1.000000  C     
 C6     1.0    0.714470    0.251086    0.259044 Biso 1.000000  C     
 C7     1.0    0.785530    0.751086    0.259044 Biso 1.000000  C     
 C8     1.0    0.214470    0.751086    0.759044 Biso 1.000000  C     
 C9     1.0    0.024742    0.025112    0.035600 Biso 1.000000  C     
 C10    1.0    0.975258    0.025112    0.535600 Biso 1.000000  C     
 C11    1.0    0.524742    0.525112    0.535600 Biso 1.000000  C     
 C12    1.0    0.475258    0.525112    0.035600 Biso 1.000000  C     
 C13    1.0    0.476812    0.968222    0.484390 Biso 1.000000  C     
 C14    1.0    0.523188    0.968222    0.984390 Biso 1.000000  C     
 C15    1.0    0.976812    0.468222    0.984390 Biso 1.000000  C     
 C16    1.0    0.023188    0.468222    0.484390 Biso 1.000000  C     
 C17    1.0    0.263650    0.650221    0.346509 Biso 1.000000  C     
 C18    1.0    0.736350    0.781695    0.876726 Biso 1.000000  C     
 C19    1.0    0.763650    0.150221    0.846509 Biso 1.000000  C     
 C20    1.0    0.236350    0.281695    0.376726 Biso 1.000000  C     
 H1     1.0    0.352200    0.855289    0.269602 Biso 1.000000  H     
 H2     1.0    0.647800    0.770953    0.567894 Biso 1.000000  H     
 H3     1.0    0.852200    0.355289    0.769602 Biso 1.000000  H     
 H4     1.0    0.147800    0.270953    0.067894 Biso 1.000000  H     
 H5     1.0    0.154950    0.886685    0.197023 Biso 1.000000  H     
 H6     1.0    0.845050    0.728053    0.495319 Biso 1.000000  H     
 H7     1.0    0.654950    0.386685    0.697023 Biso 1.000000  H     
 H8     1.0    0.345050    0.228053   -0.004681 Biso 1.000000  H     
 H9     1.0    0.181130    0.863482    0.396552 Biso 1.000000  H     
 H10    1.0    0.818870    0.858741    0.609640 Biso 1.000000  H     
 H11    1.0    0.681130    0.363482    0.896552 Biso 1.000000  H     
 H12    1.0    0.318870    0.358741    0.109640 Biso 1.000000  H     
 H13    1.0    0.151220    0.249652    0.758828 Biso 1.000000  H     
 H14    1.0    0.848780    0.249652    0.258828 Biso 1.000000  H     
 H15    1.0    0.651220    0.749652    0.258828 Biso 1.000000  H     
 H16    1.0    0.348780    0.749652    0.758828 Biso 1.000000  H     
 H17    1.0    0.449830    0.472102    0.454122 Biso 1.000000  H     
 H18    1.0    0.550170    0.472102    0.954122 Biso 1.000000  H     
 H19    1.0    0.949830   -0.027898    0.954122 Biso 1.000000  H     
 H20    1.0    0.050170   -0.027898    0.454122 Biso 1.000000  H     
 H21    1.0    0.063760    0.501702    0.072942 Biso 1.000000  H     
 H22    1.0    0.936240    0.501702    0.572942 Biso 1.000000  H     
 H23    1.0    0.563760    0.001702    0.572942 Biso 1.000000  H     
 H24    1.0    0.436240    0.001702    0.072942 Biso 1.000000  H     
 H25    1.0    0.242550    0.699097    0.121979 Biso 1.000000  H     
 H26    1.0    0.757450    0.639232    0.717345 Biso 1.000000  H     
 H27    1.0    0.742550    0.199097    0.621979 Biso 1.000000  H     
 H28    1.0    0.257450    0.139232    0.217345 Biso 1.000000  H     
 H29    1.0    0.066180    0.704181    0.227943 Biso 1.000000  H     
 H30    1.0    0.933820    0.712154    0.754561 Biso 1.000000  H     
 H31    1.0    0.566180    0.204181    0.727943 Biso 1.000000  H     
 H32    1.0    0.433820    0.212154    0.254561 Biso 1.000000  H     
 H33    1.0    0.235560    0.563511    0.308897 Biso 1.000000  H     
 H34    1.0    0.764440    0.738655    0.978138 Biso 1.000000  H     
 H35    1.0    0.735560    0.063511    0.808897 Biso 1.000000  H     
 H36    1.0    0.264440    0.238655    0.478138 Biso 1.000000  H     
 H37    1.0    0.395190    0.661869    0.349171 Biso 1.000000  H     
 H38    1.0    0.604810    0.785855    0.862107 Biso 1.000000  H     
 H39    1.0    0.895190    0.161869    0.849171 Biso 1.000000  H     
 H40    1.0    0.104810    0.285855    0.362107 Biso 1.000000  H     
 H41    1.0    0.213030    0.676185    0.462006 Biso 1.000000  H     
 H42    1.0    0.786970    0.865304    0.889718 Biso 1.000000  H     
 H43    1.0    0.713030    0.176185    0.962006 Biso 1.000000  H     
 H44    1.0    0.286970    0.365304    0.389718 Biso 1.000000  H     
 N1     1.0    0.192040    0.720096    0.233896 Biso 1.000000  N     
 N2     1.0    0.807960    0.719409    0.735551 Biso 1.000000  N     
 N3     1.0    0.692040    0.220096    0.733896 Biso 1.000000  N     
 N4     1.0    0.307960    0.219409    0.235551 Biso 1.000000  N     
