_cell_length_a                         8.244267
_cell_length_b                         12.164444
_cell_length_c                         8.623752
_cell_angle_alpha                      96.416313
_cell_angle_beta                       90.000000
_cell_angle_gamma                      90.000000
_space_group_IT_number                 1
 loop_
 _space_group_symop_operation_xyz 
 'x, y, z' 
 loop_ 
 _atom_site_label 
 _atom_site_occupancy 
 _atom_site_fract_x 
 _atom_site_fract_y
 _atom_site_fract_z
 _atom_site_adp_type
 _atom_site_U_iso_or_equiv
 _atom_site_type_symbol
 Co1    1.0    0.248356    0.999928    0.751316 Biso 1.000000  Co    
 Co2    1.0    0.751644    0.999928    0.251316 Biso 1.000000  Co    
 Co3    1.0    0.748356    0.499928    0.251316 Biso 1.000000  Co    
 Co4    1.0    0.251644    0.499928    0.751316 Biso 1.000000  Co    
 O1     1.0    0.357950    0.156912    0.747478 Biso 1.000000  O     
 O2     1.0    0.642050    0.156912    0.247478 Biso 1.000000  O     
 O3     1.0    0.857950    0.656912    0.247478 Biso 1.000000  O     
 O4     1.0    0.142050    0.656912    0.747478 Biso 1.000000  O     
 O5     1.0    0.474482    0.550966    0.664756 Biso 1.000000  O     
 O6     1.0    0.525518    0.550966    0.164756 Biso 1.000000  O     
 O7     1.0    0.974482    0.050966    0.164756 Biso 1.000000  O     
 O8     1.0    0.025518    0.050966    0.664756 Biso 1.000000  O     
 O9     1.0    0.166326    0.049382    0.980260 Biso 1.000000  O     
 O10    1.0    0.833674    0.049382    0.480260 Biso 1.000000  O     
 O11    1.0    0.666326    0.549382    0.480260 Biso 1.000000  O     
 O12    1.0    0.333674    0.549382    0.980260 Biso 1.000000  O     
 O13    1.0    0.030612    0.444246    0.840456 Biso 1.000000  O     
 O14    1.0    0.969388    0.444246    0.340456 Biso 1.000000  O     
 O15    1.0    0.530612    0.944246    0.340456 Biso 1.000000  O     
 O16    1.0    0.469388    0.944246    0.840456 Biso 1.000000  O     
 O17    1.0    0.336086    0.947582    0.522090 Biso 1.000000  O     
 O18    1.0    0.663914    0.947582    0.022090 Biso 1.000000  O     
 O19    1.0    0.836086    0.447582    0.022090 Biso 1.000000  O     
 O20    1.0    0.163914    0.447582    0.522090 Biso 1.000000  O     
 O21    1.0    0.360200    0.340862    0.754218 Biso 1.000000  O     
 O22    1.0    0.639800    0.340862    0.254218 Biso 1.000000  O     
 O23    1.0    0.860200    0.840862    0.254218 Biso 1.000000  O     
 O24    1.0    0.139800    0.840862    0.754218 Biso 1.000000  O     
 C1     1.0    0.221880    0.727176    0.418121 Biso 1.000000  C     
 C2     1.0    0.778120    0.660206    0.733025 Biso 1.000000  C     
 C3     1.0    0.721880    0.227176    0.918121 Biso 1.000000  C     
 C4     1.0    0.278120    0.160206    0.233025 Biso 1.000000  C     
 C5     1.0    0.285530    0.248914    0.750956 Biso 1.000000  C     
 C6     1.0    0.714470    0.248914    0.250956 Biso 1.000000  C     
 C7     1.0    0.785530    0.748914    0.250956 Biso 1.000000  C     
 C8     1.0    0.214470    0.748914    0.750956 Biso 1.000000  C     
 C9     1.0    0.023188    0.031778    0.025610 Biso 1.000000  C     
 C10    1.0    0.976812    0.031778    0.525610 Biso 1.000000  C     
 C11    1.0    0.523188    0.531778    0.525610 Biso 1.000000  C     
 C12    1.0    0.476812    0.531778    0.025610 Biso 1.000000  C     
 C13    1.0    0.475258    0.974888    0.474400 Biso 1.000000  C     
 C14    1.0    0.524742    0.974888    0.974400 Biso 1.000000  C     
 C15    1.0    0.975258    0.474888    0.974400 Biso 1.000000  C     
 C16    1.0    0.024742    0.474888    0.474400 Biso 1.000000  C     
 C17    1.0    0.263650    0.718305    0.133274 Biso 1.000000  C     
 C18    1.0    0.736350    0.849779    0.663491 Biso 1.000000  C     
 C19    1.0    0.763650    0.218305    0.633274 Biso 1.000000  C     
 C20    1.0    0.236350    0.349779    0.163491 Biso 1.000000  C     
 H1     1.0    0.352200    0.729047    0.442106 Biso 1.000000  H     
 H2     1.0    0.647800    0.644711    0.740398 Biso 1.000000  H     
 H3     1.0    0.852200    0.229047    0.942106 Biso 1.000000  H     
 H4     1.0    0.147800    0.144711    0.240398 Biso 1.000000  H     
 H5     1.0    0.154950    0.771947    0.514681 Biso 1.000000  H     
 H6     1.0    0.845050    0.613315    0.812977 Biso 1.000000  H     
 H7     1.0    0.654950    0.271947    1.014681 Biso 1.000000  H     
 H8     1.0    0.345050    0.113315    0.312977 Biso 1.000000  H     
 H9     1.0    0.181130    0.641259    0.400360 Biso 1.000000  H     
 H10    1.0    0.818870    0.636518    0.613448 Biso 1.000000  H     
 H11    1.0    0.681130    0.141259    0.900360 Biso 1.000000  H     
 H12    1.0    0.318870    0.136518    0.113448 Biso 1.000000  H     
 H13    1.0    0.151220    0.250348    0.751172 Biso 1.000000  H     
 H14    1.0    0.848780    0.250348    0.251172 Biso 1.000000  H     
 H15    1.0    0.651220    0.750348    0.251172 Biso 1.000000  H     
 H16    1.0    0.348780    0.750348    0.751172 Biso 1.000000  H     
 H17    1.0    0.436240    0.498298    0.437058 Biso 1.000000  H     
 H18    1.0    0.563760    0.498298    0.937058 Biso 1.000000  H     
 H19    1.0    0.936240   -0.001702    0.937058 Biso 1.000000  H     
 H20    1.0    0.063760   -0.001702    0.437058 Biso 1.000000  H     
 H21    1.0    0.050170    0.527898    0.055878 Biso 1.000000  H     
 H22    1.0    0.949830    0.527898    0.555878 Biso 1.000000  H     
 H23    1.0    0.550170    0.027898    0.555878 Biso 1.000000  H     
 H24    1.0    0.449830    0.027898    0.055878 Biso 1.000000  H     
 H25    1.0    0.242550    0.860768    0.292655 Biso 1.000000  H     
 H26    1.0    0.757450    0.800903    0.888021 Biso 1.000000  H     
 H27    1.0    0.742550    0.360768    0.792655 Biso 1.000000  H     
 H28    1.0    0.257450    0.300903    0.388021 Biso 1.000000  H     
 H29    1.0    0.066180    0.787846    0.255439 Biso 1.000000  H     
 H30    1.0    0.933820    0.795819    0.782057 Biso 1.000000  H     
 H31    1.0    0.566180    0.287846    0.755439 Biso 1.000000  H     
 H32    1.0    0.433820    0.295819    0.282057 Biso 1.000000  H     
 H33    1.0    0.235560    0.761345    0.031862 Biso 1.000000  H     
 H34    1.0    0.764440    0.936489    0.701103 Biso 1.000000  H     
 H35    1.0    0.735560    0.261345    0.531862 Biso 1.000000  H     
 H36    1.0    0.264440    0.436489    0.201103 Biso 1.000000  H     
 H37    1.0    0.395190    0.714145    0.147893 Biso 1.000000  H     
 H38    1.0    0.604810    0.838131    0.660829 Biso 1.000000  H     
 H39    1.0    0.895190    0.214145    0.647893 Biso 1.000000  H     
 H40    1.0    0.104810    0.338131    0.160829 Biso 1.000000  H     
 H41    1.0    0.213030    0.634696    0.120282 Biso 1.000000  H     
 H42    1.0    0.786970    0.823815    0.547994 Biso 1.000000  H     
 H43    1.0    0.713030    0.134696    0.620282 Biso 1.000000  H     
 H44    1.0    0.286970    0.323815    0.047994 Biso 1.000000  H     
 N1     1.0    0.192040    0.780591    0.274449 Biso 1.000000  N     
 N2     1.0    0.807960    0.779904    0.776104 Biso 1.000000  N     
 N3     1.0    0.692040    0.280591    0.774449 Biso 1.000000  N     
 N4     1.0    0.307960    0.279904    0.276104 Biso 1.000000  N     
