_cell_length_a                         8.244267
_cell_length_b                         12.164444
_cell_length_c                         8.623752
_cell_angle_alpha                      96.416313
_cell_angle_beta                       90.000000
_cell_angle_gamma                      90.000000
_space_group_IT_number                 1
 loop_
 _space_group_symop_operation_xyz 
 'x, y, z' 
 loop_ 
 _atom_site_label 
 _atom_site_occupancy 
 _atom_site_fract_x 
 _atom_site_fract_y
 _atom_site_fract_z
 _atom_site_adp_type
 _atom_site_U_iso_or_equiv
 _atom_site_type_symbol
 Co1    1.0    0.250548    1.000024    0.756228 Biso 1.000000  Co    
 Co2    1.0    0.749452    1.000024    0.256228 Biso 1.000000  Co    
 Co3    1.0    0.750548    0.500024    0.256228 Biso 1.000000  Co    
 Co4    1.0    0.249452    0.500024    0.756228 Biso 1.000000  Co    
 O1     1.0    0.359450    0.158396    0.753014 Biso 1.000000  O     
 O2     1.0    0.640550    0.158396    0.253014 Biso 1.000000  O     
 O3     1.0    0.859450    0.658396    0.253014 Biso 1.000000  O     
 O4     1.0    0.140550    0.658396    0.753014 Biso 1.000000  O     
 O5     1.0    0.471086    0.554158    0.667948 Biso 1.000000  O     
 O6     1.0    0.528914    0.554158    0.167948 Biso 1.000000  O     
 O7     1.0    0.971086    0.054158    0.167948 Biso 1.000000  O     
 O8     1.0    0.028914    0.054158    0.667948 Biso 1.000000  O     
 O9     1.0    0.164718    0.051406    0.985360 Biso 1.000000  O     
 O10    1.0    0.835282    0.051406    0.485360 Biso 1.000000  O     
 O11    1.0    0.664718    0.551406    0.485360 Biso 1.000000  O     
 O12    1.0    0.335282    0.551406    0.985360 Biso 1.000000  O     
 O13    1.0    0.027216    0.447438    0.843648 Biso 1.000000  O     
 O14    1.0    0.972784    0.447438    0.343648 Biso 1.000000  O     
 O15    1.0    0.527216    0.947438    0.343648 Biso 1.000000  O     
 O16    1.0    0.472784    0.947438    0.843648 Biso 1.000000  O     
 O17    1.0    0.334478    0.949606    0.527190 Biso 1.000000  O     
 O18    1.0    0.665522    0.949606    0.027190 Biso 1.000000  O     
 O19    1.0    0.834478    0.449606    0.027190 Biso 1.000000  O     
 O20    1.0    0.165522    0.449606    0.527190 Biso 1.000000  O     
 O21    1.0    0.358700    0.342346    0.759754 Biso 1.000000  O     
 O22    1.0    0.641300    0.342346    0.259754 Biso 1.000000  O     
 O23    1.0    0.858700    0.842346    0.259754 Biso 1.000000  O     
 O24    1.0    0.141300    0.842346    0.759754 Biso 1.000000  O     
 C1     1.0    0.221880    0.827118    0.378737 Biso 1.000000  C     
 C2     1.0    0.778120    0.718757    0.579245 Biso 1.000000  C     
 C3     1.0    0.721880    0.327118    0.878737 Biso 1.000000  C     
 C4     1.0    0.278120    0.218757    0.079245 Biso 1.000000  C     
 C5     1.0    0.285530    0.250362    0.756348 Biso 1.000000  C     
 C6     1.0    0.714470    0.250362    0.256348 Biso 1.000000  C     
 C7     1.0    0.785530    0.750362    0.256348 Biso 1.000000  C     
 C8     1.0    0.214470    0.750362    0.756348 Biso 1.000000  C     
 C9     1.0    0.024224    0.027334    0.032270 Biso 1.000000  C     
 C10    1.0    0.975776    0.027334    0.532270 Biso 1.000000  C     
 C11    1.0    0.524224    0.527334    0.532270 Biso 1.000000  C     
 C12    1.0    0.475776    0.527334    0.032270 Biso 1.000000  C     
 C13    1.0    0.476294    0.970444    0.481060 Biso 1.000000  C     
 C14    1.0    0.523706    0.970444    0.981060 Biso 1.000000  C     
 C15    1.0    0.976294    0.470444    0.981060 Biso 1.000000  C     
 C16    1.0    0.023706    0.470444    0.481060 Biso 1.000000  C     
 C17    1.0    0.263650    0.632061    0.272226 Biso 1.000000  C     
 C18    1.0    0.736350    0.844791    0.821117 Biso 1.000000  C     
 C19    1.0    0.763650    0.132061    0.772226 Biso 1.000000  C     
 C20    1.0    0.236350    0.344791    0.321117 Biso 1.000000  C     
 H1     1.0    0.352200    0.843769    0.386188 Biso 1.000000  H     
 H2     1.0    0.647800    0.707309    0.559816 Biso 1.000000  H     
 H3     1.0    0.852200    0.343769    0.886188 Biso 1.000000  H     
 H4     1.0    0.147800    0.207309    0.059816 Biso 1.000000  H     
 H5     1.0    0.154950    0.901678    0.358462 Biso 1.000000  H     
 H6     1.0    0.845050    0.645006    0.532098 Biso 1.000000  H     
 H7     1.0    0.654950    0.401678    0.858462 Biso 1.000000  H     
 H8     1.0    0.345050    0.145006    0.032098 Biso 1.000000  H     
 H9     1.0    0.181130    0.797706    0.487336 Biso 1.000000  H     
 H10    1.0    0.818870    0.790034    0.523104 Biso 1.000000  H     
 H11    1.0    0.681130    0.297706    0.987336 Biso 1.000000  H     
 H12    1.0    0.318870    0.290034    0.023104 Biso 1.000000  H     
 H13    1.0    0.151220    0.249884    0.756276 Biso 1.000000  H     
 H14    1.0    0.848780    0.249884    0.256276 Biso 1.000000  H     
 H15    1.0    0.651220    0.749884    0.256276 Biso 1.000000  H     
 H16    1.0    0.348780    0.749884    0.756276 Biso 1.000000  H     
 H17    1.0    0.445300    0.480834    0.448434 Biso 1.000000  H     
 H18    1.0    0.554700    0.480834    0.948434 Biso 1.000000  H     
 H19    1.0    0.945300   -0.019166    0.948434 Biso 1.000000  H     
 H20    1.0    0.054700   -0.019166    0.448434 Biso 1.000000  H     
 H21    1.0    0.059230    0.510434    0.067254 Biso 1.000000  H     
 H22    1.0    0.940770    0.510434    0.567254 Biso 1.000000  H     
 H23    1.0    0.559230    0.010434    0.567254 Biso 1.000000  H     
 H24    1.0    0.440770    0.010434    0.067254 Biso 1.000000  H     
 H25    1.0    0.242550    0.768985    0.146198 Biso 1.000000  H     
 H26    1.0    0.757450    0.672120    0.800504 Biso 1.000000  H     
 H27    1.0    0.742550    0.268985    0.646198 Biso 1.000000  H     
 H28    1.0    0.257450    0.172120    0.300504 Biso 1.000000  H     
 H29    1.0    0.066180    0.729000    0.229162 Biso 1.000000  H     
 H30    1.0    0.933820    0.741901    0.772230 Biso 1.000000  H     
 H31    1.0    0.566180    0.229000    0.729162 Biso 1.000000  H     
 H32    1.0    0.433820    0.241901    0.272230 Biso 1.000000  H     
 H33    1.0    0.235560    0.571951    0.171937 Biso 1.000000  H     
 H34    1.0    0.764440    0.855340    0.945775 Biso 1.000000  H     
 H35    1.0    0.735560    0.071951    0.671937 Biso 1.000000  H     
 H36    1.0    0.264440    0.355340    0.445775 Biso 1.000000  H     
 H37    1.0    0.395190    0.641139    0.283922 Biso 1.000000  H     
 H38    1.0    0.604810    0.841752    0.804854 Biso 1.000000  H     
 H39    1.0    0.895190    0.141139    0.783922 Biso 1.000000  H     
 H40    1.0    0.104810    0.341752    0.304854 Biso 1.000000  H     
 H41    1.0    0.213030    0.606352    0.379693 Biso 1.000000  H     
 H42    1.0    0.786970    0.912354    0.762728 Biso 1.000000  H     
 H43    1.0    0.713030    0.106352    0.879693 Biso 1.000000  H     
 H44    1.0    0.286970    0.412354    0.262728 Biso 1.000000  H     
 N1     1.0    0.192040    0.740432    0.246863 Biso 1.000000  N     
 N2     1.0    0.807960    0.739319    0.749541 Biso 1.000000  N     
 N3     1.0    0.692040    0.240432    0.746863 Biso 1.000000  N     
 N4     1.0    0.307960    0.239319    0.249541 Biso 1.000000  N     
