_cell_length_a                         8.244267
_cell_length_b                         12.164444
_cell_length_c                         8.623752
_cell_angle_alpha                      96.416313
_cell_angle_beta                       90.000000
_cell_angle_gamma                      90.000000
_space_group_IT_number                 1
 loop_
 _space_group_symop_operation_xyz 
 'x, y, z' 
 loop_ 
 _atom_site_label 
 _atom_site_occupancy 
 _atom_site_fract_x 
 _atom_site_fract_y
 _atom_site_fract_z
 _atom_site_adp_type
 _atom_site_U_iso_or_equiv
 _atom_site_type_symbol
 Co1    1.0    0.252740    1.000120    0.761140 Biso 1.000000  Co    
 Co2    1.0    0.747260    1.000120    0.261140 Biso 1.000000  Co    
 Co3    1.0    0.752740    0.500120    0.261140 Biso 1.000000  Co    
 Co4    1.0    0.247260    0.500120    0.761140 Biso 1.000000  Co    
 O1     1.0    0.360950    0.159880    0.758550 Biso 1.000000  O     
 O2     1.0    0.639050    0.159880    0.258550 Biso 1.000000  O     
 O3     1.0    0.860950    0.659880    0.258550 Biso 1.000000  O     
 O4     1.0    0.139050    0.659880    0.758550 Biso 1.000000  O     
 O5     1.0    0.467690    0.557350    0.671140 Biso 1.000000  O     
 O6     1.0    0.532310    0.557350    0.171140 Biso 1.000000  O     
 O7     1.0    0.967690    0.057350    0.171140 Biso 1.000000  O     
 O8     1.0    0.032310    0.057350    0.671140 Biso 1.000000  O     
 O9     1.0    0.163110    0.053430    0.990460 Biso 1.000000  O     
 O10    1.0    0.836890    0.053430    0.490460 Biso 1.000000  O     
 O11    1.0    0.663110    0.553430    0.490460 Biso 1.000000  O     
 O12    1.0    0.336890    0.553430    0.990460 Biso 1.000000  O     
 O13    1.0    0.023820    0.450630    0.846840 Biso 1.000000  O     
 O14    1.0    0.976180    0.450630    0.346840 Biso 1.000000  O     
 O15    1.0    0.523820    0.950630    0.346840 Biso 1.000000  O     
 O16    1.0    0.476180    0.950630    0.846840 Biso 1.000000  O     
 O17    1.0    0.332870    0.951630    0.532290 Biso 1.000000  O     
 O18    1.0    0.667130    0.951630    0.032290 Biso 1.000000  O     
 O19    1.0    0.832870    0.451630    0.032290 Biso 1.000000  O     
 O20    1.0    0.167130    0.451630    0.532290 Biso 1.000000  O     
 O21    1.0    0.357200    0.343830    0.765290 Biso 1.000000  O     
 O22    1.0    0.642800    0.343830    0.265290 Biso 1.000000  O     
 O23    1.0    0.857200    0.843830    0.265290 Biso 1.000000  O     
 O24    1.0    0.142800    0.843830    0.765290 Biso 1.000000  O     
 C1     1.0    0.221880    0.806950    0.159380 Biso 1.000000  C     
 C2     1.0    0.778120    0.806950    0.659380 Biso 1.000000  C     
 C3     1.0    0.721880    0.306950    0.659380 Biso 1.000000  C     
 C4     1.0    0.278120    0.306950    0.159380 Biso 1.000000  C     
 C5     1.0    0.285530    0.251810    0.761740 Biso 1.000000  C     
 C6     1.0    0.714470    0.251810    0.261740 Biso 1.000000  C     
 C7     1.0    0.785530    0.751810    0.261740 Biso 1.000000  C     
 C8     1.0    0.214470    0.751810    0.761740 Biso 1.000000  C     
 C9     1.0    0.025260    0.022890    0.038930 Biso 1.000000  C     
 C10    1.0    0.974740    0.022890    0.538930 Biso 1.000000  C     
 C11    1.0    0.525260    0.522890    0.538930 Biso 1.000000  C     
 C12    1.0    0.474740    0.522890    0.038930 Biso 1.000000  C     
 C13    1.0    0.477330    0.966000    0.487720 Biso 1.000000  C     
 C14    1.0    0.522670    0.966000    0.987720 Biso 1.000000  C     
 C15    1.0    0.977330    0.466000    0.987720 Biso 1.000000  C     
 C16    1.0    0.022670    0.466000    0.487720 Biso 1.000000  C     
 C17    1.0    0.263650    0.695270    0.378400 Biso 1.000000  C     
 C18    1.0    0.736350    0.695270    0.878400 Biso 1.000000  C     
 C19    1.0    0.763650    0.195270    0.878400 Biso 1.000000  C     
 C20    1.0    0.236350    0.195270    0.378400 Biso 1.000000  C     
 H1     1.0    0.352200    0.815370    0.140000 Biso 1.000000  H     
 H2     1.0    0.647800    0.815370    0.640000 Biso 1.000000  H     
 H3     1.0    0.852200    0.315370    0.640000 Biso 1.000000  H     
 H4     1.0    0.147800    0.315370    0.140000 Biso 1.000000  H     
 H5     1.0    0.154950    0.808260    0.050290 Biso 1.000000  H     
 H6     1.0    0.845050    0.808260    0.550290 Biso 1.000000  H     
 H7     1.0    0.654950    0.308260    0.550290 Biso 1.000000  H     
 H8     1.0    0.345050    0.308260    0.050290 Biso 1.000000  H     
 H9     1.0    0.181130    0.874690    0.244260 Biso 1.000000  H     
 H10    1.0    0.818870    0.874690    0.744260 Biso 1.000000  H     
 H11    1.0    0.681130    0.374690    0.744260 Biso 1.000000  H     
 H12    1.0    0.318870    0.374690    0.244260 Biso 1.000000  H     
 H13    1.0    0.151220    0.249420    0.761380 Biso 1.000000  H     
 H14    1.0    0.848780    0.249420    0.261380 Biso 1.000000  H     
 H15    1.0    0.651220    0.749420    0.261380 Biso 1.000000  H     
 H16    1.0    0.348780    0.749420    0.761380 Biso 1.000000  H     
 H17    1.0    0.454360    0.463370    0.459810 Biso 1.000000  H     
 H18    1.0    0.545640    0.463370    0.959810 Biso 1.000000  H     
 H19    1.0    0.954360   -0.036630    0.959810 Biso 1.000000  H     
 H20    1.0    0.045640   -0.036630    0.459810 Biso 1.000000  H     
 H21    1.0    0.068290    0.492970    0.078630 Biso 1.000000  H     
 H22    1.0    0.931710    0.492970    0.578630 Biso 1.000000  H     
 H23    1.0    0.568290   -0.007030    0.578630 Biso 1.000000  H     
 H24    1.0    0.431710   -0.007030    0.078630 Biso 1.000000  H     
 H25    1.0    0.242550    0.637430    0.141130 Biso 1.000000  H     
 H26    1.0    0.757450    0.637430    0.641130 Biso 1.000000  H     
 H27    1.0    0.742550    0.137430    0.641130 Biso 1.000000  H     
 H28    1.0    0.257450    0.137430    0.141130 Biso 1.000000  H     
 H29    1.0    0.066180    0.685640    0.229620 Biso 1.000000  H     
 H30    1.0    0.933820    0.685640    0.729620 Biso 1.000000  H     
 H31    1.0    0.566180    0.185640    0.729620 Biso 1.000000  H     
 H32    1.0    0.433820    0.185640    0.229620 Biso 1.000000  H     
 H33    1.0    0.235560    0.615080    0.417830 Biso 1.000000  H     
 H34    1.0    0.764440    0.615080    0.917830 Biso 1.000000  H     
 H35    1.0    0.735560    0.115080    0.917830 Biso 1.000000  H     
 H36    1.0    0.264440    0.115080    0.417830 Biso 1.000000  H     
 H37    1.0    0.395190    0.705040    0.371010 Biso 1.000000  H     
 H38    1.0    0.604810    0.705040    0.871010 Biso 1.000000  H     
 H39    1.0    0.895190    0.205040    0.871010 Biso 1.000000  H     
 H40    1.0    0.104810    0.205040    0.371010 Biso 1.000000  H     
 H41    1.0    0.213030    0.762990    0.457810 Biso 1.000000  H     
 H42    1.0    0.786970    0.762990    0.957810 Biso 1.000000  H     
 H43    1.0    0.713030    0.262990    0.957810 Biso 1.000000  H     
 H44    1.0    0.286970    0.262990    0.457810 Biso 1.000000  H     
 N1     1.0    0.192040    0.699960    0.221550 Biso 1.000000  N     
 N2     1.0    0.807960    0.699960    0.721550 Biso 1.000000  N     
 N3     1.0    0.692040    0.199960    0.721550 Biso 1.000000  N     
 N4     1.0    0.307960    0.199960    0.221550 Biso 1.000000  N     
