_cell_length_a                         8.244267
_cell_length_b                         12.164444
_cell_length_c                         8.623752
_cell_angle_alpha                      96.416313
_cell_angle_beta                       90.000000
_cell_angle_gamma                      90.000000
_space_group_IT_number                 1
 loop_
 _space_group_symop_operation_xyz 
 'x, y, z' 
 loop_ 
 _atom_site_label 
 _atom_site_occupancy 
 _atom_site_fract_x 
 _atom_site_fract_y
 _atom_site_fract_z
 _atom_site_adp_type
 _atom_site_U_iso_or_equiv
 _atom_site_type_symbol
 Co1    1.0    0.249452    0.999976    0.753772 Biso 1.000000  Co    
 Co2    1.0    0.750548    0.999976    0.253772 Biso 1.000000  Co    
 Co3    1.0    0.749452    0.499976    0.253772 Biso 1.000000  Co    
 Co4    1.0    0.250548    0.499976    0.753772 Biso 1.000000  Co    
 O1     1.0    0.358700    0.157654    0.750246 Biso 1.000000  O     
 O2     1.0    0.641300    0.157654    0.250246 Biso 1.000000  O     
 O3     1.0    0.858700    0.657654    0.250246 Biso 1.000000  O     
 O4     1.0    0.141300    0.657654    0.750246 Biso 1.000000  O     
 O5     1.0    0.472784    0.552562    0.666352 Biso 1.000000  O     
 O6     1.0    0.527216    0.552562    0.166352 Biso 1.000000  O     
 O7     1.0    0.972784    0.052562    0.166352 Biso 1.000000  O     
 O8     1.0    0.027216    0.052562    0.666352 Biso 1.000000  O     
 O9     1.0    0.165522    0.050394    0.982810 Biso 1.000000  O     
 O10    1.0    0.834478    0.050394    0.482810 Biso 1.000000  O     
 O11    1.0    0.665522    0.550394    0.482810 Biso 1.000000  O     
 O12    1.0    0.334478    0.550394    0.982810 Biso 1.000000  O     
 O13    1.0    0.028914    0.445842    0.842052 Biso 1.000000  O     
 O14    1.0    0.971086    0.445842    0.342052 Biso 1.000000  O     
 O15    1.0    0.528914    0.945842    0.342052 Biso 1.000000  O     
 O16    1.0    0.471086    0.945842    0.842052 Biso 1.000000  O     
 O17    1.0    0.335282    0.948594    0.524640 Biso 1.000000  O     
 O18    1.0    0.664718    0.948594    0.024640 Biso 1.000000  O     
 O19    1.0    0.835282    0.448594    0.024640 Biso 1.000000  O     
 O20    1.0    0.164718    0.448594    0.524640 Biso 1.000000  O     
 O21    1.0    0.359450    0.341604    0.756986 Biso 1.000000  O     
 O22    1.0    0.640550    0.341604    0.256986 Biso 1.000000  O     
 O23    1.0    0.859450    0.841604    0.256986 Biso 1.000000  O     
 O24    1.0    0.140550    0.841604    0.756986 Biso 1.000000  O     
 C1     1.0    0.221880    0.781243    0.430755 Biso 1.000000  C     
 C2     1.0    0.778120    0.672882    0.631263 Biso 1.000000  C     
 C3     1.0    0.721880    0.281243    0.930755 Biso 1.000000  C     
 C4     1.0    0.278120    0.172882    0.131263 Biso 1.000000  C     
 C5     1.0    0.285530    0.249638    0.753652 Biso 1.000000  C     
 C6     1.0    0.714470    0.249638    0.253652 Biso 1.000000  C     
 C7     1.0    0.785530    0.749638    0.253652 Biso 1.000000  C     
 C8     1.0    0.214470    0.749638    0.753652 Biso 1.000000  C     
 C9     1.0    0.023706    0.029556    0.028940 Biso 1.000000  C     
 C10    1.0    0.976294    0.029556    0.528940 Biso 1.000000  C     
 C11    1.0    0.523706    0.529556    0.528940 Biso 1.000000  C     
 C12    1.0    0.476294    0.529556    0.028940 Biso 1.000000  C     
 C13    1.0    0.475776    0.972666    0.477730 Biso 1.000000  C     
 C14    1.0    0.524224    0.972666    0.977730 Biso 1.000000  C     
 C15    1.0    0.975776    0.472666    0.977730 Biso 1.000000  C     
 C16    1.0    0.024224    0.472666    0.477730 Biso 1.000000  C     
 C17    1.0    0.263650    0.655209    0.188883 Biso 1.000000  C     
 C18    1.0    0.736350    0.867939    0.737774 Biso 1.000000  C     
 C19    1.0    0.763650    0.155209    0.688883 Biso 1.000000  C     
 C20    1.0    0.236350    0.367939    0.237774 Biso 1.000000  C     
 H1     1.0    0.352200    0.792691    0.450184 Biso 1.000000  H     
 H2     1.0    0.647800    0.656231    0.623812 Biso 1.000000  H     
 H3     1.0    0.852200    0.292691    0.950184 Biso 1.000000  H     
 H4     1.0    0.147800    0.156231    0.123812 Biso 1.000000  H     
 H5     1.0    0.154950    0.854994    0.477902 Biso 1.000000  H     
 H6     1.0    0.845050    0.598322    0.651538 Biso 1.000000  H     
 H7     1.0    0.654950    0.354994    0.977902 Biso 1.000000  H     
 H8     1.0    0.345050    0.098322    0.151538 Biso 1.000000  H     
 H9     1.0    0.181130    0.709966    0.486896 Biso 1.000000  H     
 H10    1.0    0.818870    0.702294    0.522664 Biso 1.000000  H     
 H11    1.0    0.681130    0.209966    0.986896 Biso 1.000000  H     
 H12    1.0    0.318870    0.202294    0.022664 Biso 1.000000  H     
 H13    1.0    0.151220    0.250116    0.753724 Biso 1.000000  H     
 H14    1.0    0.848780    0.250116    0.253724 Biso 1.000000  H     
 H15    1.0    0.651220    0.750116    0.253724 Biso 1.000000  H     
 H16    1.0    0.348780    0.750116    0.753724 Biso 1.000000  H     
 H17    1.0    0.440770    0.489566    0.442746 Biso 1.000000  H     
 H18    1.0    0.559230    0.489566    0.942746 Biso 1.000000  H     
 H19    1.0    0.940770   -0.010434    0.942746 Biso 1.000000  H     
 H20    1.0    0.059230   -0.010434    0.442746 Biso 1.000000  H     
 H21    1.0    0.054700    0.519166    0.061566 Biso 1.000000  H     
 H22    1.0    0.945300    0.519166    0.561566 Biso 1.000000  H     
 H23    1.0    0.554700    0.019166    0.561566 Biso 1.000000  H     
 H24    1.0    0.445300    0.019166    0.061566 Biso 1.000000  H     
 H25    1.0    0.242550    0.827880    0.209496 Biso 1.000000  H     
 H26    1.0    0.757450    0.731015    0.863802 Biso 1.000000  H     
 H27    1.0    0.742550    0.327880    0.709496 Biso 1.000000  H     
 H28    1.0    0.257450    0.231015    0.363802 Biso 1.000000  H     
 H29    1.0    0.066180    0.758099    0.237770 Biso 1.000000  H     
 H30    1.0    0.933820    0.771000    0.780838 Biso 1.000000  H     
 H31    1.0    0.566180    0.258099    0.737770 Biso 1.000000  H     
 H32    1.0    0.433820    0.271000    0.280838 Biso 1.000000  H     
 H33    1.0    0.235560    0.644660    0.064225 Biso 1.000000  H     
 H34    1.0    0.764440    0.928049    0.838063 Biso 1.000000  H     
 H35    1.0    0.735560    0.144660    0.564225 Biso 1.000000  H     
 H36    1.0    0.264440    0.428049    0.338063 Biso 1.000000  H     
 H37    1.0    0.395190    0.658248    0.205146 Biso 1.000000  H     
 H38    1.0    0.604810    0.858861    0.726078 Biso 1.000000  H     
 H39    1.0    0.895190    0.158248    0.705146 Biso 1.000000  H     
 H40    1.0    0.104810    0.358861    0.226078 Biso 1.000000  H     
 H41    1.0    0.213030    0.587646    0.247272 Biso 1.000000  H     
 H42    1.0    0.786970    0.893648    0.630307 Biso 1.000000  H     
 H43    1.0    0.713030    0.087646    0.747272 Biso 1.000000  H     
 H44    1.0    0.286970    0.393648    0.130307 Biso 1.000000  H     
 N1     1.0    0.192040    0.760681    0.260459 Biso 1.000000  N     
 N2     1.0    0.807960    0.759568    0.763137 Biso 1.000000  N     
 N3     1.0    0.692040    0.260681    0.760459 Biso 1.000000  N     
 N4     1.0    0.307960    0.259568    0.263137 Biso 1.000000  N     
