_cell_length_a                         8.244267
_cell_length_b                         12.164444
_cell_length_c                         8.623752
_cell_angle_alpha                      96.416313
_cell_angle_beta                       90.000000
_cell_angle_gamma                      90.000000
_space_group_IT_number                 1
 loop_
 _space_group_symop_operation_xyz 
 'x, y, z' 
 loop_ 
 _atom_site_label 
 _atom_site_occupancy 
 _atom_site_fract_x 
 _atom_site_fract_y
 _atom_site_fract_z
 _atom_site_adp_type
 _atom_site_U_iso_or_equiv
 _atom_site_type_symbol
 Co1    1.0    0.252192    1.000096    0.759912 Biso 1.000000  Co    
 Co2    1.0    0.747808    1.000096    0.259912 Biso 1.000000  Co    
 Co3    1.0    0.752192    0.500096    0.259912 Biso 1.000000  Co    
 Co4    1.0    0.247808    0.500096    0.759912 Biso 1.000000  Co    
 O1     1.0    0.360575    0.159509    0.757166 Biso 1.000000  O     
 O2     1.0    0.639425    0.159509    0.257166 Biso 1.000000  O     
 O3     1.0    0.860575    0.659509    0.257166 Biso 1.000000  O     
 O4     1.0    0.139425    0.659509    0.757166 Biso 1.000000  O     
 O5     1.0    0.468539    0.556552    0.670342 Biso 1.000000  O     
 O6     1.0    0.531461    0.556552    0.170342 Biso 1.000000  O     
 O7     1.0    0.968539    0.056552    0.170342 Biso 1.000000  O     
 O8     1.0    0.031461    0.056552    0.670342 Biso 1.000000  O     
 O9     1.0    0.163512    0.052924    0.989185 Biso 1.000000  O     
 O10    1.0    0.836488    0.052924    0.489185 Biso 1.000000  O     
 O11    1.0    0.663512    0.552924    0.489185 Biso 1.000000  O     
 O12    1.0    0.336488    0.552924    0.989185 Biso 1.000000  O     
 O13    1.0    0.024669    0.449832    0.846042 Biso 1.000000  O     
 O14    1.0    0.975331    0.449832    0.346042 Biso 1.000000  O     
 O15    1.0    0.524669    0.949832    0.346042 Biso 1.000000  O     
 O16    1.0    0.475331    0.949832    0.846042 Biso 1.000000  O     
 O17    1.0    0.333272    0.951124    0.531015 Biso 1.000000  O     
 O18    1.0    0.666728    0.951124    0.031015 Biso 1.000000  O     
 O19    1.0    0.833272    0.451124    0.031015 Biso 1.000000  O     
 O20    1.0    0.166728    0.451124    0.531015 Biso 1.000000  O     
 O21    1.0    0.357575    0.343459    0.763906 Biso 1.000000  O     
 O22    1.0    0.642425    0.343459    0.263906 Biso 1.000000  O     
 O23    1.0    0.857575    0.843459    0.263906 Biso 1.000000  O     
 O24    1.0    0.142425    0.843459    0.763906 Biso 1.000000  O     
 C1     1.0    0.221880    0.829164    0.217619 Biso 1.000000  C     
 C2     1.0    0.778120    0.793956    0.620308 Biso 1.000000  C     
 C3     1.0    0.721880    0.329164    0.717619 Biso 1.000000  C     
 C4     1.0    0.278120    0.293956    0.120308 Biso 1.000000  C     
 C5     1.0    0.285530    0.251448    0.760392 Biso 1.000000  C     
 C6     1.0    0.714470    0.251448    0.260392 Biso 1.000000  C     
 C7     1.0    0.785530    0.751448    0.260392 Biso 1.000000  C     
 C8     1.0    0.214470    0.751448    0.760392 Biso 1.000000  C     
 C9     1.0    0.025001    0.024001    0.037265 Biso 1.000000  C     
 C10    1.0    0.974999    0.024001    0.537265 Biso 1.000000  C     
 C11    1.0    0.525001    0.524001    0.537265 Biso 1.000000  C     
 C12    1.0    0.474999    0.524001    0.037265 Biso 1.000000  C     
 C13    1.0    0.477071    0.967111    0.486055 Biso 1.000000  C     
 C14    1.0    0.522929    0.967111    0.986055 Biso 1.000000  C     
 C15    1.0    0.977071    0.467111    0.986055 Biso 1.000000  C     
 C16    1.0    0.022929    0.467111    0.486055 Biso 1.000000  C     
 C17    1.0    0.263650    0.670786    0.369321 Biso 1.000000  C     
 C18    1.0    0.736350    0.739906    0.885207 Biso 1.000000  C     
 C19    1.0    0.763650    0.170786    0.869321 Biso 1.000000  C     
 C20    1.0    0.236350    0.239906    0.385207 Biso 1.000000  C     
 H1     1.0    0.352200    0.841737    0.203554 Biso 1.000000  H     
 H2     1.0    0.647800    0.797399    0.597510 Biso 1.000000  H     
 H3     1.0    0.852200    0.341737    0.703554 Biso 1.000000  H     
 H4     1.0    0.147800    0.297399    0.097510 Biso 1.000000  H     
 H5     1.0    0.154950    0.854505    0.118234 Biso 1.000000  H     
 H6     1.0    0.845050    0.771107    0.512192 Biso 1.000000  H     
 H7     1.0    0.654950    0.354505    0.618234 Biso 1.000000  H     
 H8     1.0    0.345050    0.271107    0.012192 Biso 1.000000  H     
 H9     1.0    0.181130    0.877231    0.325108 Biso 1.000000  H     
 H10    1.0    0.818870    0.874738    0.674270 Biso 1.000000  H     
 H11    1.0    0.681130    0.377231    0.825108 Biso 1.000000  H     
 H12    1.0    0.318870    0.374738    0.174270 Biso 1.000000  H     
 H13    1.0    0.151220    0.249536    0.760104 Biso 1.000000  H     
 H14    1.0    0.848780    0.249536    0.260104 Biso 1.000000  H     
 H15    1.0    0.651220    0.749536    0.260104 Biso 1.000000  H     
 H16    1.0    0.348780    0.749536    0.760104 Biso 1.000000  H     
 H17    1.0    0.452095    0.467736    0.456966 Biso 1.000000  H     
 H18    1.0    0.547905    0.467736    0.956966 Biso 1.000000  H     
 H19    1.0    0.952095   -0.032264    0.956966 Biso 1.000000  H     
 H20    1.0    0.047905   -0.032264    0.456966 Biso 1.000000  H     
 H21    1.0    0.066025    0.497336    0.075786 Biso 1.000000  H     
 H22    1.0    0.933975    0.497336    0.575786 Biso 1.000000  H     
 H23    1.0    0.566025   -0.002664    0.575786 Biso 1.000000  H     
 H24    1.0    0.433975   -0.002664    0.075786 Biso 1.000000  H     
 H25    1.0    0.242550    0.666073    0.126538 Biso 1.000000  H     
 H26    1.0    0.757450    0.634600    0.676675 Biso 1.000000  H     
 H27    1.0    0.742550    0.166073    0.626538 Biso 1.000000  H     
 H28    1.0    0.257450    0.134600    0.176675 Biso 1.000000  H     
 H29    1.0    0.066180    0.694091    0.228769 Biso 1.000000  H     
 H30    1.0    0.933820    0.698283    0.742762 Biso 1.000000  H     
 H31    1.0    0.566180    0.194091    0.728769 Biso 1.000000  H     
 H32    1.0    0.433820    0.198283    0.242762 Biso 1.000000  H     
 H33    1.0    0.235560    0.583041    0.370276 Biso 1.000000  H     
 H34    1.0    0.764440    0.675120    0.959252 Biso 1.000000  H     
 H35    1.0    0.735560    0.083041    0.870276 Biso 1.000000  H     
 H36    1.0    0.264440    0.175120    0.459252 Biso 1.000000  H     
 H37    1.0    0.395190    0.682046    0.366835 Biso 1.000000  H     
 H38    1.0    0.604810    0.747229    0.873636 Biso 1.000000  H     
 H39    1.0    0.895190    0.182046    0.866835 Biso 1.000000  H     
 H40    1.0    0.104810    0.247229    0.373636 Biso 1.000000  H     
 H41    1.0    0.213030    0.720038    0.471789 Biso 1.000000  H     
 H42    1.0    0.786970    0.819464    0.933785 Biso 1.000000  H     
 H43    1.0    0.713030    0.220038    0.971789 Biso 1.000000  H     
 H44    1.0    0.286970    0.319464    0.433785 Biso 1.000000  H     
 N1     1.0    0.192040    0.709987    0.227656 Biso 1.000000  N     
 N2     1.0    0.807960    0.709626    0.728526 Biso 1.000000  N     
 N3     1.0    0.692040    0.209987    0.727656 Biso 1.000000  N     
 N4     1.0    0.307960    0.209626    0.228526 Biso 1.000000  N     
