_cell_length_a                         8.244267
_cell_length_b                         12.164444
_cell_length_c                         8.623752
_cell_angle_alpha                      96.416313
_cell_angle_beta                       90.000000
_cell_angle_gamma                      90.000000
_space_group_IT_number                 1
 loop_
 _space_group_symop_operation_xyz 
 'x, y, z' 
 loop_ 
 _atom_site_label 
 _atom_site_occupancy 
 _atom_site_fract_x 
 _atom_site_fract_y
 _atom_site_fract_z
 _atom_site_adp_type
 _atom_site_U_iso_or_equiv
 _atom_site_type_symbol
 Co1    1.0    0.247260    0.999880    0.748860 Biso 1.000000  Co    
 Co2    1.0    0.752740    0.999880    0.248860 Biso 1.000000  Co    
 Co3    1.0    0.747260    0.499880    0.248860 Biso 1.000000  Co    
 Co4    1.0    0.252740    0.499880    0.748860 Biso 1.000000  Co    
 O1     1.0    0.357200    0.156170    0.744710 Biso 1.000000  O     
 O2     1.0    0.642800    0.156170    0.244710 Biso 1.000000  O     
 O3     1.0    0.857200    0.656170    0.244710 Biso 1.000000  O     
 O4     1.0    0.142800    0.656170    0.744710 Biso 1.000000  O     
 O5     1.0    0.476180    0.549370    0.663160 Biso 1.000000  O     
 O6     1.0    0.523820    0.549370    0.163160 Biso 1.000000  O     
 O7     1.0    0.976180    0.049370    0.163160 Biso 1.000000  O     
 O8     1.0    0.023820    0.049370    0.663160 Biso 1.000000  O     
 O9     1.0    0.167130    0.048370    0.977710 Biso 1.000000  O     
 O10    1.0    0.832870    0.048370    0.477710 Biso 1.000000  O     
 O11    1.0    0.667130    0.548370    0.477710 Biso 1.000000  O     
 O12    1.0    0.332870    0.548370    0.977710 Biso 1.000000  O     
 O13    1.0    0.032310    0.442650    0.838860 Biso 1.000000  O     
 O14    1.0    0.967690    0.442650    0.338860 Biso 1.000000  O     
 O15    1.0    0.532310    0.942650    0.338860 Biso 1.000000  O     
 O16    1.0    0.467690    0.942650    0.838860 Biso 1.000000  O     
 O17    1.0    0.336890    0.946570    0.519540 Biso 1.000000  O     
 O18    1.0    0.663110    0.946570    0.019540 Biso 1.000000  O     
 O19    1.0    0.836890    0.446570    0.019540 Biso 1.000000  O     
 O20    1.0    0.163110    0.446570    0.519540 Biso 1.000000  O     
 O21    1.0    0.360950    0.340120    0.751450 Biso 1.000000  O     
 O22    1.0    0.639050    0.340120    0.251450 Biso 1.000000  O     
 O23    1.0    0.860950    0.840120    0.251450 Biso 1.000000  O     
 O24    1.0    0.139050    0.840120    0.751450 Biso 1.000000  O     
 C1     1.0    0.221880    0.693050    0.350620 Biso 1.000000  C     
 C2     1.0    0.778120    0.693050    0.850620 Biso 1.000000  C     
 C3     1.0    0.721880    0.193050    0.850620 Biso 1.000000  C     
 C4     1.0    0.278120    0.193050    0.350620 Biso 1.000000  C     
 C5     1.0    0.285530    0.248190    0.748260 Biso 1.000000  C     
 C6     1.0    0.714470    0.248190    0.248260 Biso 1.000000  C     
 C7     1.0    0.785530    0.748190    0.248260 Biso 1.000000  C     
 C8     1.0    0.214470    0.748190    0.748260 Biso 1.000000  C     
 C9     1.0    0.022670    0.034000    0.022280 Biso 1.000000  C     
 C10    1.0    0.977330    0.034000    0.522280 Biso 1.000000  C     
 C11    1.0    0.522670    0.534000    0.522280 Biso 1.000000  C     
 C12    1.0    0.477330    0.534000    0.022280 Biso 1.000000  C     
 C13    1.0    0.474740    0.977110    0.471070 Biso 1.000000  C     
 C14    1.0    0.525260    0.977110    0.971070 Biso 1.000000  C     
 C15    1.0    0.974740    0.477110    0.971070 Biso 1.000000  C     
 C16    1.0    0.025260    0.477110    0.471070 Biso 1.000000  C     
 C17    1.0    0.263650    0.804730    0.131600 Biso 1.000000  C     
 C18    1.0    0.736350    0.804730    0.631600 Biso 1.000000  C     
 C19    1.0    0.763650    0.304730    0.631600 Biso 1.000000  C     
 C20    1.0    0.236350    0.304730    0.131600 Biso 1.000000  C     
 H1     1.0    0.352200    0.684630    0.370000 Biso 1.000000  H     
 H2     1.0    0.647800    0.684630    0.870000 Biso 1.000000  H     
 H3     1.0    0.852200    0.184630    0.870000 Biso 1.000000  H     
 H4     1.0    0.147800    0.184630    0.370000 Biso 1.000000  H     
 H5     1.0    0.154950    0.691740    0.459710 Biso 1.000000  H     
 H6     1.0    0.845050    0.691740    0.959710 Biso 1.000000  H     
 H7     1.0    0.654950    0.191740    0.959710 Biso 1.000000  H     
 H8     1.0    0.345050    0.191740    0.459710 Biso 1.000000  H     
 H9     1.0    0.181130    0.625310    0.265740 Biso 1.000000  H     
 H10    1.0    0.818870    0.625310    0.765740 Biso 1.000000  H     
 H11    1.0    0.681130    0.125310    0.765740 Biso 1.000000  H     
 H12    1.0    0.318870    0.125310    0.265740 Biso 1.000000  H     
 H13    1.0    0.151220    0.250580    0.748620 Biso 1.000000  H     
 H14    1.0    0.848780    0.250580    0.248620 Biso 1.000000  H     
 H15    1.0    0.651220    0.750580    0.248620 Biso 1.000000  H     
 H16    1.0    0.348780    0.750580    0.748620 Biso 1.000000  H     
 H17    1.0    0.431710    0.507030    0.431370 Biso 1.000000  H     
 H18    1.0    0.568290    0.507030    0.931370 Biso 1.000000  H     
 H19    1.0    0.931710    0.007030    0.931370 Biso 1.000000  H     
 H20    1.0    0.068290    0.007030    0.431370 Biso 1.000000  H     
 H21    1.0    0.045640    0.536630    0.050190 Biso 1.000000  H     
 H22    1.0    0.954360    0.536630    0.550190 Biso 1.000000  H     
 H23    1.0    0.545640    0.036630    0.550190 Biso 1.000000  H     
 H24    1.0    0.454360    0.036630    0.050190 Biso 1.000000  H     
 H25    1.0    0.242550    0.862570    0.368870 Biso 1.000000  H     
 H26    1.0    0.757450    0.862570    0.868870 Biso 1.000000  H     
 H27    1.0    0.742550    0.362570    0.868870 Biso 1.000000  H     
 H28    1.0    0.257450    0.362570    0.368870 Biso 1.000000  H     
 H29    1.0    0.066180    0.814360    0.280380 Biso 1.000000  H     
 H30    1.0    0.933820    0.814360    0.780380 Biso 1.000000  H     
 H31    1.0    0.566180    0.314360    0.780380 Biso 1.000000  H     
 H32    1.0    0.433820    0.314360    0.280380 Biso 1.000000  H     
 H33    1.0    0.235560    0.884920    0.092170 Biso 1.000000  H     
 H34    1.0    0.764440    0.884920    0.592170 Biso 1.000000  H     
 H35    1.0    0.735560    0.384920    0.592170 Biso 1.000000  H     
 H36    1.0    0.264440    0.384920    0.092170 Biso 1.000000  H     
 H37    1.0    0.395190    0.794960    0.138990 Biso 1.000000  H     
 H38    1.0    0.604810    0.794960    0.638990 Biso 1.000000  H     
 H39    1.0    0.895190    0.294960    0.638990 Biso 1.000000  H     
 H40    1.0    0.104810    0.294960    0.138990 Biso 1.000000  H     
 H41    1.0    0.213030    0.737010    0.052190 Biso 1.000000  H     
 H42    1.0    0.786970    0.737010    0.552190 Biso 1.000000  H     
 H43    1.0    0.713030    0.237010    0.552190 Biso 1.000000  H     
 H44    1.0    0.286970    0.237010    0.052190 Biso 1.000000  H     
 N1     1.0    0.192040    0.800040    0.288450 Biso 1.000000  N     
 N2     1.0    0.807960    0.800040    0.788450 Biso 1.000000  N     
 N3     1.0    0.692040    0.300040    0.788450 Biso 1.000000  N     
 N4     1.0    0.307960    0.300040    0.288450 Biso 1.000000  N     
