_cell_length_a                         8.244267
_cell_length_b                         12.164444
_cell_length_c                         8.623752
_cell_angle_alpha                      96.416313
_cell_angle_beta                       90.000000
_cell_angle_gamma                      90.000000
_space_group_IT_number                 1
 loop_
 _space_group_symop_operation_xyz 
 'x, y, z' 
 loop_ 
 _atom_site_label 
 _atom_site_occupancy 
 _atom_site_fract_x 
 _atom_site_fract_y
 _atom_site_fract_z
 _atom_site_adp_type
 _atom_site_U_iso_or_equiv
 _atom_site_type_symbol
 Co1    1.0    0.247808    0.999904    0.750088 Biso 1.000000  Co    
 Co2    1.0    0.752192    0.999904    0.250088 Biso 1.000000  Co    
 Co3    1.0    0.747808    0.499904    0.250088 Biso 1.000000  Co    
 Co4    1.0    0.252192    0.499904    0.750088 Biso 1.000000  Co    
 O1     1.0    0.357575    0.156541    0.746094 Biso 1.000000  O     
 O2     1.0    0.642425    0.156541    0.246094 Biso 1.000000  O     
 O3     1.0    0.857575    0.656541    0.246094 Biso 1.000000  O     
 O4     1.0    0.142425    0.656541    0.746094 Biso 1.000000  O     
 O5     1.0    0.475331    0.550168    0.663958 Biso 1.000000  O     
 O6     1.0    0.524669    0.550168    0.163958 Biso 1.000000  O     
 O7     1.0    0.975331    0.050168    0.163958 Biso 1.000000  O     
 O8     1.0    0.024669    0.050168    0.663958 Biso 1.000000  O     
 O9     1.0    0.166728    0.048876    0.978985 Biso 1.000000  O     
 O10    1.0    0.833272    0.048876    0.478985 Biso 1.000000  O     
 O11    1.0    0.666728    0.548876    0.478985 Biso 1.000000  O     
 O12    1.0    0.333272    0.548876    0.978985 Biso 1.000000  O     
 O13    1.0    0.031461    0.443448    0.839658 Biso 1.000000  O     
 O14    1.0    0.968539    0.443448    0.339658 Biso 1.000000  O     
 O15    1.0    0.531461    0.943448    0.339658 Biso 1.000000  O     
 O16    1.0    0.468539    0.943448    0.839658 Biso 1.000000  O     
 O17    1.0    0.336488    0.947076    0.520815 Biso 1.000000  O     
 O18    1.0    0.663512    0.947076    0.020815 Biso 1.000000  O     
 O19    1.0    0.836488    0.447076    0.020815 Biso 1.000000  O     
 O20    1.0    0.163512    0.447076    0.520815 Biso 1.000000  O     
 O21    1.0    0.360575    0.340491    0.752834 Biso 1.000000  O     
 O22    1.0    0.639425    0.340491    0.252834 Biso 1.000000  O     
 O23    1.0    0.860575    0.840491    0.252834 Biso 1.000000  O     
 O24    1.0    0.139425    0.840491    0.752834 Biso 1.000000  O     
 C1     1.0    0.221880    0.706044    0.389692 Biso 1.000000  C     
 C2     1.0    0.778120    0.670836    0.792381 Biso 1.000000  C     
 C3     1.0    0.721880    0.206044    0.889692 Biso 1.000000  C     
 C4     1.0    0.278120    0.170836    0.292381 Biso 1.000000  C     
 C5     1.0    0.285530    0.248552    0.749608 Biso 1.000000  C     
 C6     1.0    0.714470    0.248552    0.249608 Biso 1.000000  C     
 C7     1.0    0.785530    0.748552    0.249608 Biso 1.000000  C     
 C8     1.0    0.214470    0.748552    0.749608 Biso 1.000000  C     
 C9     1.0    0.022929    0.032889    0.023945 Biso 1.000000  C     
 C10    1.0    0.977071    0.032889    0.523945 Biso 1.000000  C     
 C11    1.0    0.522929    0.532889    0.523945 Biso 1.000000  C     
 C12    1.0    0.477071    0.532889    0.023945 Biso 1.000000  C     
 C13    1.0    0.474999    0.975999    0.472735 Biso 1.000000  C     
 C14    1.0    0.525001    0.975999    0.972735 Biso 1.000000  C     
 C15    1.0    0.974999    0.475999    0.972735 Biso 1.000000  C     
 C16    1.0    0.025001    0.475999    0.472735 Biso 1.000000  C     
 C17    1.0    0.263650    0.760094    0.124793 Biso 1.000000  C     
 C18    1.0    0.736350    0.829214    0.640679 Biso 1.000000  C     
 C19    1.0    0.763650    0.260094    0.624793 Biso 1.000000  C     
 C20    1.0    0.236350    0.329214    0.140679 Biso 1.000000  C     
 H1     1.0    0.352200    0.702601    0.412490 Biso 1.000000  H     
 H2     1.0    0.647800    0.658263    0.806446 Biso 1.000000  H     
 H3     1.0    0.852200    0.202601    0.912490 Biso 1.000000  H     
 H4     1.0    0.147800    0.158263    0.306446 Biso 1.000000  H     
 H5     1.0    0.154950    0.728893    0.497808 Biso 1.000000  H     
 H6     1.0    0.845050    0.645495    0.891766 Biso 1.000000  H     
 H7     1.0    0.654950    0.228893    0.997808 Biso 1.000000  H     
 H8     1.0    0.345050    0.145495    0.391766 Biso 1.000000  H     
 H9     1.0    0.181130    0.625262    0.335730 Biso 1.000000  H     
 H10    1.0    0.818870    0.622769    0.684892 Biso 1.000000  H     
 H11    1.0    0.681130    0.125262    0.835730 Biso 1.000000  H     
 H12    1.0    0.318870    0.122769    0.184892 Biso 1.000000  H     
 H13    1.0    0.151220    0.250464    0.749896 Biso 1.000000  H     
 H14    1.0    0.848780    0.250464    0.249896 Biso 1.000000  H     
 H15    1.0    0.651220    0.750464    0.249896 Biso 1.000000  H     
 H16    1.0    0.348780    0.750464    0.749896 Biso 1.000000  H     
 H17    1.0    0.433975    0.502664    0.434214 Biso 1.000000  H     
 H18    1.0    0.566025    0.502664    0.934214 Biso 1.000000  H     
 H19    1.0    0.933975    0.002664    0.934214 Biso 1.000000  H     
 H20    1.0    0.066025    0.002664    0.434214 Biso 1.000000  H     
 H21    1.0    0.047905    0.532264    0.053034 Biso 1.000000  H     
 H22    1.0    0.952095    0.532264    0.553034 Biso 1.000000  H     
 H23    1.0    0.547905    0.032264    0.553034 Biso 1.000000  H     
 H24    1.0    0.452095    0.032264    0.053034 Biso 1.000000  H     
 H25    1.0    0.242550    0.865400    0.333325 Biso 1.000000  H     
 H26    1.0    0.757450    0.833927    0.883462 Biso 1.000000  H     
 H27    1.0    0.742550    0.365400    0.833325 Biso 1.000000  H     
 H28    1.0    0.257450    0.333927    0.383462 Biso 1.000000  H     
 H29    1.0    0.066180    0.801717    0.267238 Biso 1.000000  H     
 H30    1.0    0.933820    0.805909    0.781231 Biso 1.000000  H     
 H31    1.0    0.566180    0.301717    0.767238 Biso 1.000000  H     
 H32    1.0    0.433820    0.305909    0.281231 Biso 1.000000  H     
 H33    1.0    0.235560    0.824880    0.050748 Biso 1.000000  H     
 H34    1.0    0.764440    0.916959    0.639724 Biso 1.000000  H     
 H35    1.0    0.735560    0.324880    0.550748 Biso 1.000000  H     
 H36    1.0    0.264440    0.416959    0.139724 Biso 1.000000  H     
 H37    1.0    0.395190    0.752771    0.136364 Biso 1.000000  H     
 H38    1.0    0.604810    0.817954    0.643165 Biso 1.000000  H     
 H39    1.0    0.895190    0.252771    0.636364 Biso 1.000000  H     
 H40    1.0    0.104810    0.317954    0.143165 Biso 1.000000  H     
 H41    1.0    0.213030    0.680536    0.076215 Biso 1.000000  H     
 H42    1.0    0.786970    0.779962    0.538211 Biso 1.000000  H     
 H43    1.0    0.713030    0.180536    0.576215 Biso 1.000000  H     
 H44    1.0    0.286970    0.279962    0.038211 Biso 1.000000  H     
 N1     1.0    0.192040    0.790374    0.281474 Biso 1.000000  N     
 N2     1.0    0.807960    0.790013    0.782344 Biso 1.000000  N     
 N3     1.0    0.692040    0.290374    0.781474 Biso 1.000000  N     
 N4     1.0    0.307960    0.290013    0.282344 Biso 1.000000  N     
