_cell_length_a                         8.244267
_cell_length_b                         12.164444
_cell_length_c                         8.623752
_cell_angle_alpha                      96.416313
_cell_angle_beta                       90.000000
_cell_angle_gamma                      90.000000
_space_group_IT_number                 1
 loop_
 _space_group_symop_operation_xyz 
 'x, y, z' 
 loop_ 
 _atom_site_label 
 _atom_site_occupancy 
 _atom_site_fract_x 
 _atom_site_fract_y
 _atom_site_fract_z
 _atom_site_adp_type
 _atom_site_U_iso_or_equiv
 _atom_site_type_symbol
 Co1    1.0    0.248904    0.999952    0.752544 Biso 1.000000  Co    
 Co2    1.0    0.751096    0.999952    0.252544 Biso 1.000000  Co    
 Co3    1.0    0.748904    0.499952    0.252544 Biso 1.000000  Co    
 Co4    1.0    0.251096    0.499952    0.752544 Biso 1.000000  Co    
 O1     1.0    0.358325    0.157283    0.748862 Biso 1.000000  O     
 O2     1.0    0.641675    0.157283    0.248862 Biso 1.000000  O     
 O3     1.0    0.858325    0.657283    0.248862 Biso 1.000000  O     
 O4     1.0    0.141675    0.657283    0.748862 Biso 1.000000  O     
 O5     1.0    0.473633    0.551764    0.665554 Biso 1.000000  O     
 O6     1.0    0.526367    0.551764    0.165554 Biso 1.000000  O     
 O7     1.0    0.973633    0.051764    0.165554 Biso 1.000000  O     
 O8     1.0    0.026367    0.051764    0.665554 Biso 1.000000  O     
 O9     1.0    0.165924    0.049888    0.981535 Biso 1.000000  O     
 O10    1.0    0.834076    0.049888    0.481535 Biso 1.000000  O     
 O11    1.0    0.665924    0.549888    0.481535 Biso 1.000000  O     
 O12    1.0    0.334076    0.549888    0.981535 Biso 1.000000  O     
 O13    1.0    0.029763    0.445044    0.841254 Biso 1.000000  O     
 O14    1.0    0.970237    0.445044    0.341254 Biso 1.000000  O     
 O15    1.0    0.529763    0.945044    0.341254 Biso 1.000000  O     
 O16    1.0    0.470237    0.945044    0.841254 Biso 1.000000  O     
 O17    1.0    0.335684    0.948088    0.523365 Biso 1.000000  O     
 O18    1.0    0.664316    0.948088    0.023365 Biso 1.000000  O     
 O19    1.0    0.835684    0.448088    0.023365 Biso 1.000000  O     
 O20    1.0    0.164316    0.448088    0.523365 Biso 1.000000  O     
 O21    1.0    0.359825    0.341233    0.755602 Biso 1.000000  O     
 O22    1.0    0.640175    0.341233    0.255602 Biso 1.000000  O     
 O23    1.0    0.859825    0.841233    0.255602 Biso 1.000000  O     
 O24    1.0    0.140175    0.841233    0.755602 Biso 1.000000  O     
 C1     1.0    0.221880    0.753418    0.432490 Biso 1.000000  C     
 C2     1.0    0.778120    0.661241    0.677727 Biso 1.000000  C     
 C3     1.0    0.721880    0.253418    0.932490 Biso 1.000000  C     
 C4     1.0    0.278120    0.161241    0.177727 Biso 1.000000  C     
 C5     1.0    0.285530    0.249276    0.752304 Biso 1.000000  C     
 C6     1.0    0.714470    0.249276    0.252304 Biso 1.000000  C     
 C7     1.0    0.785530    0.749276    0.252304 Biso 1.000000  C     
 C8     1.0    0.214470    0.749276    0.752304 Biso 1.000000  C     
 C9     1.0    0.023447    0.030667    0.027275 Biso 1.000000  C     
 C10    1.0    0.976553    0.030667    0.527275 Biso 1.000000  C     
 C11    1.0    0.523447    0.530667    0.527275 Biso 1.000000  C     
 C12    1.0    0.476553    0.530667    0.027275 Biso 1.000000  C     
 C13    1.0    0.475517    0.973777    0.476065 Biso 1.000000  C     
 C14    1.0    0.524483    0.973777    0.976065 Biso 1.000000  C     
 C15    1.0    0.975517    0.473777    0.976065 Biso 1.000000  C     
 C16    1.0    0.024483    0.473777    0.476065 Biso 1.000000  C     
 C17    1.0    0.263650    0.682494    0.155577 Biso 1.000000  C     
 C18    1.0    0.736350    0.863453    0.697166 Biso 1.000000  C     
 C19    1.0    0.763650    0.182494    0.655577 Biso 1.000000  C     
 C20    1.0    0.236350    0.363453    0.197166 Biso 1.000000  C     
 H1     1.0    0.352200    0.760421    0.455314 Biso 1.000000  H     
 H2     1.0    0.647800    0.644341    0.677686 Biso 1.000000  H     
 H3     1.0    0.852200    0.260421    0.955314 Biso 1.000000  H     
 H4     1.0    0.147800    0.144341    0.177686 Biso 1.000000  H     
 H5     1.0    0.154950    0.815729    0.508041 Biso 1.000000  H     
 H6     1.0    0.845050    0.597390    0.730419 Biso 1.000000  H     
 H7     1.0    0.654950    0.315729    1.008041 Biso 1.000000  H     
 H8     1.0    0.345050    0.097390    0.230419 Biso 1.000000  H     
 H9     1.0    0.181130    0.670776    0.452667 Biso 1.000000  H     
 H10    1.0    0.818870    0.664250    0.557767 Biso 1.000000  H     
 H11    1.0    0.681130    0.170776    0.952667 Biso 1.000000  H     
 H12    1.0    0.318870    0.164250    0.057767 Biso 1.000000  H     
 H13    1.0    0.151220    0.250232    0.752448 Biso 1.000000  H     
 H14    1.0    0.848780    0.250232    0.252448 Biso 1.000000  H     
 H15    1.0    0.651220    0.750232    0.252448 Biso 1.000000  H     
 H16    1.0    0.348780    0.750232    0.752448 Biso 1.000000  H     
 H17    1.0    0.438505    0.493932    0.439902 Biso 1.000000  H     
 H18    1.0    0.561495    0.493932    0.939902 Biso 1.000000  H     
 H19    1.0    0.938505   -0.006068    0.939902 Biso 1.000000  H     
 H20    1.0    0.061495   -0.006068    0.439902 Biso 1.000000  H     
 H21    1.0    0.052435    0.523532    0.058722 Biso 1.000000  H     
 H22    1.0    0.947565    0.523532    0.558722 Biso 1.000000  H     
 H23    1.0    0.552435    0.023532    0.558722 Biso 1.000000  H     
 H24    1.0    0.447565    0.023532    0.058722 Biso 1.000000  H     
 H25    1.0    0.242550    0.848170    0.250205 Biso 1.000000  H     
 H26    1.0    0.757450    0.765772    0.881465 Biso 1.000000  H     
 H27    1.0    0.742550    0.348170    0.750205 Biso 1.000000  H     
 H28    1.0    0.257450    0.265772    0.381465 Biso 1.000000  H     
 H29    1.0    0.066180    0.773147    0.245504 Biso 1.000000  H     
 H30    1.0    0.933820    0.784121    0.782140 Biso 1.000000  H     
 H31    1.0    0.566180    0.273147    0.745504 Biso 1.000000  H     
 H32    1.0    0.433820    0.284121    0.282140 Biso 1.000000  H     
 H33    1.0    0.235560    0.699576    0.036725 Biso 1.000000  H     
 H34    1.0    0.764440    0.940641    0.769665 Biso 1.000000  H     
 H35    1.0    0.735560    0.199576    0.536725 Biso 1.000000  H     
 H36    1.0    0.264440    0.440641    0.269665 Biso 1.000000  H     
 H37    1.0    0.395190    0.681905    0.171812 Biso 1.000000  H     
 H38    1.0    0.604810    0.852557    0.689618 Biso 1.000000  H     
 H39    1.0    0.895190    0.181905    0.671812 Biso 1.000000  H     
 H40    1.0    0.104810    0.352557    0.189618 Biso 1.000000  H     
 H41    1.0    0.213030    0.603018    0.179444 Biso 1.000000  H     
 H42    1.0    0.786970    0.863319    0.579947 Biso 1.000000  H     
 H43    1.0    0.713030    0.103018    0.679444 Biso 1.000000  H     
 H44    1.0    0.286970    0.363319    0.079947 Biso 1.000000  H     
 N1     1.0    0.192040    0.770690    0.267427 Biso 1.000000  N     
 N2     1.0    0.807960    0.769744    0.769705 Biso 1.000000  N     
 N3     1.0    0.692040    0.270690    0.767427 Biso 1.000000  N     
 N4     1.0    0.307960    0.269744    0.269705 Biso 1.000000  N     
