_cell_length_a                         8.244267
_cell_length_b                         12.164444
_cell_length_c                         8.623752
_cell_angle_alpha                      96.416313
_cell_angle_beta                       90.000000
_cell_angle_gamma                      90.000000
_space_group_IT_number                 1
 loop_
 _space_group_symop_operation_xyz 
 'x, y, z' 
 loop_ 
 _atom_site_label 
 _atom_site_occupancy 
 _atom_site_fract_x 
 _atom_site_fract_y
 _atom_site_fract_z
 _atom_site_adp_type
 _atom_site_U_iso_or_equiv
 _atom_site_type_symbol
 Co1    1.0    0.250000    1.000000    0.755000 Biso 1.000000  Co    
 Co2    1.0    0.750000    1.000000    0.255000 Biso 1.000000  Co    
 Co3    1.0    0.750000    0.500000    0.255000 Biso 1.000000  Co    
 Co4    1.0    0.250000    0.500000    0.755000 Biso 1.000000  Co    
 O1     1.0    0.359075    0.158025    0.751630 Biso 1.000000  O     
 O2     1.0    0.640925    0.158025    0.251630 Biso 1.000000  O     
 O3     1.0    0.859075    0.658025    0.251630 Biso 1.000000  O     
 O4     1.0    0.140925    0.658025    0.751630 Biso 1.000000  O     
 O5     1.0    0.471935    0.553360    0.667150 Biso 1.000000  O     
 O6     1.0    0.528065    0.553360    0.167150 Biso 1.000000  O     
 O7     1.0    0.971935    0.053360    0.167150 Biso 1.000000  O     
 O8     1.0    0.028065    0.053360    0.667150 Biso 1.000000  O     
 O9     1.0    0.165120    0.050900    0.984085 Biso 1.000000  O     
 O10    1.0    0.834880    0.050900    0.484085 Biso 1.000000  O     
 O11    1.0    0.665120    0.550900    0.484085 Biso 1.000000  O     
 O12    1.0    0.334880    0.550900    0.984085 Biso 1.000000  O     
 O13    1.0    0.028065    0.446640    0.842850 Biso 1.000000  O     
 O14    1.0    0.971935    0.446640    0.342850 Biso 1.000000  O     
 O15    1.0    0.528065    0.946640    0.342850 Biso 1.000000  O     
 O16    1.0    0.471935    0.946640    0.842850 Biso 1.000000  O     
 O17    1.0    0.334880    0.949100    0.525915 Biso 1.000000  O     
 O18    1.0    0.665120    0.949100    0.025915 Biso 1.000000  O     
 O19    1.0    0.834880    0.449100    0.025915 Biso 1.000000  O     
 O20    1.0    0.165120    0.449100    0.525915 Biso 1.000000  O     
 O21    1.0    0.359075    0.341975    0.758370 Biso 1.000000  O     
 O22    1.0    0.640925    0.341975    0.258370 Biso 1.000000  O     
 O23    1.0    0.859075    0.841975    0.258370 Biso 1.000000  O     
 O24    1.0    0.140925    0.841975    0.758370 Biso 1.000000  O     
 C1     1.0    0.221880    0.806969    0.412452 Biso 1.000000  C     
 C2     1.0    0.778120    0.693031    0.597548 Biso 1.000000  C     
 C3     1.0    0.721880    0.306969    0.912452 Biso 1.000000  C     
 C4     1.0    0.278120    0.193031    0.097548 Biso 1.000000  C     
 C5     1.0    0.285530    0.250000    0.755000 Biso 1.000000  C     
 C6     1.0    0.714470    0.250000    0.255000 Biso 1.000000  C     
 C7     1.0    0.785530    0.750000    0.255000 Biso 1.000000  C     
 C8     1.0    0.214470    0.750000    0.755000 Biso 1.000000  C     
 C9     1.0    0.023965    0.028445    0.030605 Biso 1.000000  C     
 C10    1.0    0.976035    0.028445    0.530605 Biso 1.000000  C     
 C11    1.0    0.523965    0.528445    0.530605 Biso 1.000000  C     
 C12    1.0    0.476035    0.528445    0.030605 Biso 1.000000  C     
 C13    1.0    0.476035    0.971555    0.479395 Biso 1.000000  C     
 C14    1.0    0.523965    0.971555    0.979395 Biso 1.000000  C     
 C15    1.0    0.976035    0.471555    0.979395 Biso 1.000000  C     
 C16    1.0    0.023965    0.471555    0.479395 Biso 1.000000  C     
 C17    1.0    0.263650    0.638161    0.229296 Biso 1.000000  C     
 C18    1.0    0.736350    0.861839    0.780704 Biso 1.000000  C     
 C19    1.0    0.763650    0.138161    0.729296 Biso 1.000000  C     
 C20    1.0    0.236350    0.361839    0.280704 Biso 1.000000  C     
 H1     1.0    0.352200    0.821741    0.426584 Biso 1.000000  H     
 H2     1.0    0.647800    0.678259    0.583416 Biso 1.000000  H     
 H3     1.0    0.852200    0.321741    0.926584 Biso 1.000000  H     
 H4     1.0    0.147800    0.178259    0.083416 Biso 1.000000  H     
 H5     1.0    0.154950    0.884941    0.426580 Biso 1.000000  H     
 H6     1.0    0.845050    0.615059    0.583420 Biso 1.000000  H     
 H7     1.0    0.654950    0.384941    0.926580 Biso 1.000000  H     
 H8     1.0    0.345050    0.115059    0.083420 Biso 1.000000  H     
 H9     1.0    0.181130    0.754033    0.499062 Biso 1.000000  H     
 H10    1.0    0.818870    0.745967    0.510938 Biso 1.000000  H     
 H11    1.0    0.681130    0.254033    0.999062 Biso 1.000000  H     
 H12    1.0    0.318870    0.245967    0.010938 Biso 1.000000  H     
 H13    1.0    0.151220    0.250000    0.755000 Biso 1.000000  H     
 H14    1.0    0.848780    0.250000    0.255000 Biso 1.000000  H     
 H15    1.0    0.651220    0.750000    0.255000 Biso 1.000000  H     
 H16    1.0    0.348780    0.750000    0.755000 Biso 1.000000  H     
 H17    1.0    0.443035    0.485200    0.445590 Biso 1.000000  H     
 H18    1.0    0.556965    0.485200    0.945590 Biso 1.000000  H     
 H19    1.0    0.943035   -0.014800    0.945590 Biso 1.000000  H     
 H20    1.0    0.056965   -0.014800    0.445590 Biso 1.000000  H     
 H21    1.0    0.056965    0.514800    0.064410 Biso 1.000000  H     
 H22    1.0    0.943035    0.514800    0.564410 Biso 1.000000  H     
 H23    1.0    0.556965    0.014800    0.564410 Biso 1.000000  H     
 H24    1.0    0.443035    0.014800    0.064410 Biso 1.000000  H     
 H25    1.0    0.242550    0.800925    0.173877 Biso 1.000000  H     
 H26    1.0    0.757450    0.699075    0.836123 Biso 1.000000  H     
 H27    1.0    0.742550    0.300925    0.673877 Biso 1.000000  H     
 H28    1.0    0.257450    0.199075    0.336123 Biso 1.000000  H     
 H29    1.0    0.066180    0.743217    0.232358 Biso 1.000000  H     
 H30    1.0    0.933820    0.756783    0.777642 Biso 1.000000  H     
 H31    1.0    0.566180    0.243217    0.732358 Biso 1.000000  H     
 H32    1.0    0.433820    0.256783    0.277642 Biso 1.000000  H     
 H33    1.0    0.235560    0.601014    0.111035 Biso 1.000000  H     
 H34    1.0    0.764440    0.898986    0.898965 Biso 1.000000  H     
 H35    1.0    0.735560    0.101014    0.611035 Biso 1.000000  H     
 H36    1.0    0.264440    0.398986    0.398965 Biso 1.000000  H     
 H37    1.0    0.395190    0.644532    0.243995 Biso 1.000000  H     
 H38    1.0    0.604810    0.855468    0.766005 Biso 1.000000  H     
 H39    1.0    0.895190    0.144532    0.743995 Biso 1.000000  H     
 H40    1.0    0.104810    0.355468    0.266005 Biso 1.000000  H     
 H41    1.0    0.213030    0.589125    0.316492 Biso 1.000000  H     
 H42    1.0    0.786970    0.910875    0.693508 Biso 1.000000  H     
 H43    1.0    0.713030    0.089125    0.816492 Biso 1.000000  H     
 H44    1.0    0.286970    0.410875    0.193508 Biso 1.000000  H     
 N1     1.0    0.192040    0.750585    0.253592 Biso 1.000000  N     
 N2     1.0    0.807960    0.749415    0.756408 Biso 1.000000  N     
 N3     1.0    0.692040    0.250585    0.753592 Biso 1.000000  N     
 N4     1.0    0.307960    0.249415    0.256408 Biso 1.000000  N     
